#exported by Narupa Builder at 20/08/2019
 
@<TRIPOS>MOLECULE
narupa builder molecule
13 12 0 0 0
SMALL
GASTEIGER
 
@<TRIPOS>ATOM
1 O1 15.454 12.400 10.465 O.3 1 N1
2 O2 17.557 13.139 10.484 O.2 1 N1
3 N1 15.471 11.577 13.009 N.3 1 N1
4 C1 17.762 12.397 13.307 C.3 1 N1
5 C2 16.792 11.716 12.351 C.3 1 N1
6 C3 16.676 12.504 11.039 C.2 1 N1
7 H1 18.761 12.464 12.862 H 1 N1
8 H2 17.852 11.837 14.244 H 1 N1
9 H3 17.442 13.418 13.545 H 1 N1
10 H4 14.812 11.267 12.289 H 1 N1
11 H5 15.138 12.504 13.275 H 1 N1
12 H6 15.545 12.913 9.634 H 1 N1
13 H7 17.158 10.716 12.097 H 1 N1
 
@<TRIPOS>BOND
1 6 5 1
2 6 2 2
3 6 1 1
4 5 3 1
5 5 4 1
6 13 5 1
7 12 1 1
8 11 3 1
9 10 3 1
10 9 4 1
11 8 4 1
12 7 4 1
