#exported by Narupa Builder at 20/08/2019
 
@<TRIPOS>MOLECULE
narupa builder molecule
26 25 0 0 0
SMALL
GASTEIGER
 
@<TRIPOS>ATOM
1 O1 15.273 12.284 9.774 O.3 1 N1
2 O2 17.460 12.714 9.727 O.2 1 N1
3 N1 17.481 14.142 17.021 N.3 1 N1
4 N2 17.481 12.231 18.239 N.2 1 N1
5 N3 18.700 12.352 16.259 N.3 1 N1
6 N4 15.142 11.793 12.374 N.3 1 N1
7 C1 17.875 12.868 17.196 C.2 1 N1
8 C2 18.703 12.747 14.858 C.3 1 N1
9 C3 17.576 12.046 14.100 C.3 1 N1
10 C4 17.497 12.539 12.651 C.3 1 N1
11 C5 16.500 11.753 11.789 C.3 1 N1
12 C6 16.495 12.310 10.355 C.2 1 N1
13 H1 18.253 14.758 16.805 H 1 N1
14 H2 16.997 14.457 17.855 H 1 N1
15 H3 17.873 11.289 18.231 H 1 N1
16 H4 18.900 11.367 16.380 H 1 N1
17 H5 19.667 12.458 14.424 H 1 N1
18 H6 18.630 13.835 14.750 H 1 N1
19 H7 16.621 12.228 14.607 H 1 N1
20 H8 17.744 10.962 14.118 H 1 N1
21 H9 18.493 12.466 12.195 H 1 N1
22 H10 17.237 13.606 12.644 H 1 N1
23 H11 14.497 11.425 11.669 H 1 N1
24 H12 14.859 12.766 12.492 H 1 N1
25 H13 15.433 12.644 8.875 H 1 N1
26 H14 16.809 10.704 11.719 H 1 N1
 
@<TRIPOS>BOND
1 12 11 1
2 12 2 2
3 12 1 1
4 11 6 1
5 11 10 1
6 9 10 1
7 9 8 1
8 7 4 2
9 7 3 1
10 7 5 1
11 8 5 1
12 25 1 1
13 24 6 1
14 23 6 1
15 22 10 1
16 21 10 1
17 26 11 1
18 20 9 1
19 19 9 1
20 18 8 1
21 17 8 1
22 16 5 1
23 15 4 1
24 14 3 1
25 13 3 1
