#exported by Narupa Builder at 20/08/2019
 
@<TRIPOS>MOLECULE
narupa builder molecule
17 16 0 0 0
SMALL
GASTEIGER
 
@<TRIPOS>ATOM
1 O1 17.231 12.514 16.087 O.2 1 N1
2 O2 17.890 13.112 10.813 O.2 1 N1
3 O3 15.738 12.576 10.586 O.3 1 N1
4 N1 18.587 11.090 14.992 N.3 1 N1
5 N2 15.363 11.691 13.036 N.3 1 N1
6 C1 17.722 12.142 15.027 C.2 1 N1
7 C2 17.469 12.840 13.713 C.3 1 N1
8 C3 16.779 11.952 12.680 C.3 1 N1
9 C4 16.887 12.614 11.299 C.2 1 N1
10 H1 18.798 10.640 15.874 H 1 N1
11 H2 19.120 10.827 14.176 H 1 N1
12 H3 18.443 13.187 13.343 H 1 N1
13 H4 16.881 13.747 13.905 H 1 N1
14 H5 14.895 11.332 12.198 H 1 N1
15 H6 14.895 12.578 13.226 H 1 N1
16 H7 17.277 10.980 12.592 H 1 N1
17 H8 15.966 13.018 9.741 H 1 N1
 
@<TRIPOS>BOND
1 9 8 1
2 9 2 2
3 9 3 1
4 8 5 1
5 8 7 1
6 6 4 1
7 6 1 2
8 7 6 1
9 17 3 1
10 15 5 1
11 14 5 1
12 13 7 1
13 12 7 1
14 16 8 1
15 11 4 1
16 10 4 1
