#exported by Narupa Builder at 20/08/2019
 
@<TRIPOS>MOLECULE
narupa builder molecule
20 19 0 0 0
SMALL
GASTEIGER
 
@<TRIPOS>ATOM
1 O1 19.610 10.566 13.289 O.2 1 N1
2 O2 17.917 13.028 9.783 O.2 1 N1
3 O3 15.961 11.973 9.636 O.3 1 N1
4 N1 18.974 10.421 15.447 N.3 1 N1
5 N2 15.719 11.551 12.258 N.3 1 N1
6 C1 18.926 10.995 14.210 C.2 1 N1
7 C2 18.011 12.198 14.120 C.3 1 N1
8 C3 17.858 12.723 12.691 C.3 1 N1
9 C4 17.100 11.772 11.755 C.3 1 N1
10 C5 17.068 12.340 10.325 C.2 1 N1
11 H1 19.535 9.586 15.549 H 1 N1
12 H2 18.320 10.657 16.179 H 1 N1
13 H3 18.452 12.988 14.740 H 1 N1
14 H4 17.038 11.944 14.553 H 1 N1
15 H5 18.853 12.929 12.274 H 1 N1
16 H6 17.341 13.691 12.726 H 1 N1
17 H7 15.238 10.992 11.545 H 1 N1
18 H8 15.225 12.444 12.242 H 1 N1
19 H9 17.599 10.800 11.691 H 1 N1
20 H10 16.104 12.371 8.751 H 1 N1
 
@<TRIPOS>BOND
1 10 9 1
2 10 2 2
3 10 3 1
4 9 5 1
5 9 8 1
6 7 8 1
7 6 4 1
8 6 1 2
9 7 6 1
10 20 3 1
11 18 5 1
12 17 5 1
13 16 8 1
14 15 8 1
15 19 9 1
16 14 7 1
17 13 7 1
18 12 4 1
19 11 4 1
