#exported by Narupa Builder at 20/08/2019
 
@<TRIPOS>MOLECULE
narupa builder molecule
22 21 0 0 0
SMALL
GASTEIGER
 
@<TRIPOS>ATOM
1 O1 14.895 13.374 9.887 O.3 1 N1
2 O2 16.638 12.424 8.868 O.2 1 N1
3 N1 14.760 11.469 11.764 N.3 1 N1
4 C1 17.949 12.431 14.577 C.3 1 N1
5 C2 18.422 12.675 11.567 C.3 1 N1
6 C3 17.118 11.715 13.519 C.3 1 N1
7 C4 17.023 12.468 12.169 C.3 1 N1
8 C5 16.101 11.717 11.172 C.3 1 N1
9 C6 15.933 12.505 9.860 C.2 1 N1
10 H1 19.012 12.434 14.321 H 1 N1
11 H2 17.847 11.920 15.540 H 1 N1
12 H3 17.615 13.466 14.706 H 1 N1
13 H4 18.909 11.715 11.362 H 1 N1
14 H5 19.068 13.247 12.240 H 1 N1
15 H6 18.380 13.242 10.633 H 1 N1
16 H7 16.114 11.579 13.938 H 1 N1
17 H8 17.531 10.712 13.359 H 1 N1
18 H9 16.598 13.463 12.359 H 1 N1
19 H10 14.199 10.952 11.087 H 1 N1
20 H11 14.294 12.378 11.842 H 1 N1
21 H12 14.930 13.803 9.006 H 1 N1
22 H13 16.529 10.740 10.916 H 1 N1
 
@<TRIPOS>BOND
1 9 8 1
2 9 2 2
3 9 1 1
4 8 3 1
5 8 7 1
6 6 7 1
7 5 7 1
8 6 4 1
9 21 1 1
10 20 3 1
11 19 3 1
12 18 7 1
13 22 8 1
14 15 5 1
15 14 5 1
16 13 5 1
17 17 6 1
18 16 6 1
19 12 4 1
20 11 4 1
21 10 4 1
