#exported by Narupa Builder at 20/08/2019
 
@<TRIPOS>MOLECULE
narupa builder molecule
22 21 0 0 0
SMALL
GASTEIGER
 
@<TRIPOS>ATOM
1 O1 15.255 12.829 8.908 O.3 1 N1
2 O2 17.332 13.595 9.143 O.2 1 N1
3 N1 15.068 11.645 11.246 N.3 1 N1
4 C1 18.333 12.987 14.206 C.3 1 N1
5 C2 16.682 11.141 13.880 C.3 1 N1
6 C3 17.681 12.057 13.176 C.3 1 N1
7 C4 17.065 12.901 12.039 C.3 1 N1
8 C5 16.437 12.093 10.891 C.3 1 N1
9 C6 16.417 12.924 9.595 C.2 1 N1
10 H1 18.832 12.410 14.992 H 1 N1
11 H2 17.589 13.635 14.681 H 1 N1
12 H3 19.087 13.625 13.734 H 1 N1
13 H4 17.144 10.653 14.745 H 1 N1
14 H5 16.339 10.343 13.215 H 1 N1
15 H6 15.809 11.699 14.235 H 1 N1
16 H7 18.473 11.430 12.748 H 1 N1
17 H8 17.863 13.538 11.634 H 1 N1
18 H9 16.324 13.599 12.453 H 1 N1
19 H10 14.647 11.263 10.394 H 1 N1
20 H11 14.502 12.470 11.450 H 1 N1
21 H12 15.412 13.382 8.113 H 1 N1
22 H13 17.039 11.204 10.673 H 1 N1
 
@<TRIPOS>BOND
1 9 8 1
2 9 2 2
3 9 1 1
4 8 3 1
5 8 7 1
6 6 7 1
7 6 5 1
8 6 4 1
9 21 1 1
10 20 3 1
11 19 3 1
12 18 7 1
13 17 7 1
14 22 8 1
15 16 6 1
16 15 5 1
17 14 5 1
18 13 5 1
19 12 4 1
20 11 4 1
21 10 4 1
