#exported by Narupa Builder at 20/08/2019
 
@<TRIPOS>MOLECULE
narupa builder molecule
24 23 0 0 0
SMALL
GASTEIGER
 
@<TRIPOS>ATOM
1 O1 15.082 12.639 9.118 O.3 1 N1
2 O2 17.277 13.011 9.050 O.2 1 N1
3 N1 19.641 12.528 16.377 N.3 1 N1
4 N2 14.991 11.800 11.621 N.3 1 N1
5 C1 18.632 11.861 15.562 C.3 1 N1
6 C2 18.531 12.529 14.192 C.3 1 N1
7 C3 17.482 11.838 13.316 C.3 1 N1
8 C4 17.336 12.544 11.964 C.3 1 N1
9 C5 16.347 11.846 11.021 C.3 1 N1
10 C6 16.320 12.562 9.660 C.2 1 N1
11 H1 19.654 12.109 17.306 H 1 N1
12 H2 19.383 13.506 16.509 H 1 N1
13 H3 17.666 11.903 16.076 H 1 N1
14 H4 18.905 10.806 15.449 H 1 N1
15 H5 19.505 12.497 13.689 H 1 N1
16 H6 18.265 13.587 14.314 H 1 N1
17 H7 16.521 11.834 13.843 H 1 N1
18 H8 17.770 10.792 13.156 H 1 N1
19 H9 18.321 12.590 11.480 H 1 N1
20 H10 17.028 13.586 12.124 H 1 N1
21 H11 14.352 11.478 10.888 H 1 N1
22 H12 14.689 12.757 11.809 H 1 N1
23 H13 15.233 13.092 8.261 H 1 N1
24 H14 16.667 10.816 10.830 H 1 N1
 
@<TRIPOS>BOND
1 10 9 1
2 10 2 2
3 10 1 1
4 9 4 1
5 9 8 1
6 7 8 1
7 7 6 1
8 6 5 1
9 5 3 1
10 23 1 1
11 22 4 1
12 21 4 1
13 20 8 1
14 19 8 1
15 24 9 1
16 18 7 1
17 17 7 1
18 16 6 1
19 15 6 1
20 14 5 1
21 13 5 1
22 12 3 1
23 11 3 1
