#exported by Narupa Builder at 20/08/2019
 
@<TRIPOS>MOLECULE
narupa builder molecule
17 16 0 0 0
SMALL
GASTEIGER
 
@<TRIPOS>ATOM
1 O1 13.867 12.287 15.037 O.3 1 N1
2 O2 16.390 11.537 12.731 O.2 1 N1
3 O3 14.692 10.361 11.892 O.3 1 N1
4 N1 13.645 9.597 14.189 N.3 1 N1
5 C1 14.793 10.884 16.752 C.3 1 N1
6 C2 14.960 11.400 15.326 C.3 1 N1
7 C3 14.978 10.254 14.292 C.3 1 N1
8 C4 15.431 10.809 12.935 C.2 1 N1
9 H1 15.588 10.180 17.016 H 1 N1
10 H2 13.824 10.394 16.890 H 1 N1
11 H3 14.821 11.718 17.463 H 1 N1
12 H4 13.895 13.002 15.697 H 1 N1
13 H5 15.884 11.987 15.262 H 1 N1
14 H6 13.582 9.201 13.246 H 1 N1
15 H7 12.959 10.360 14.187 H 1 N1
16 H8 15.712 9.490 14.571 H 1 N1
17 H9 15.099 10.798 11.115 H 1 N1
 
@<TRIPOS>BOND
1 8 7 1
2 8 2 2
3 8 3 1
4 7 4 1
5 7 6 1
6 1 6 1
7 5 6 1
8 17 3 1
9 15 4 1
10 14 4 1
11 13 6 1
12 16 7 1
13 11 5 1
14 10 5 1
15 9 5 1
16 12 1 1
