#exported by Narupa Builder at 20/08/2019
 
@<TRIPOS>MOLECULE
narupa builder molecule
24 24 0 0 0
SMALL
GASTEIGER
 
@<TRIPOS>ATOM
1 O1 17.418 10.149 18.756 O.3 1 N1
2 O2 17.984 12.663 10.611 O.2 1 N1
3 O3 15.794 12.390 10.307 O.3 1 N1
4 N1 15.252 11.640 12.784 N.3 1 N1
5 C1 17.464 10.659 17.492 C.2 1 N1
6 C2 17.318 9.776 16.431 C.2 1 N1
7 C3 17.655 12.016 17.265 C.2 1 N1
8 C4 17.357 10.255 15.119 C.2 1 N1
9 C5 17.694 12.493 15.952 C.2 1 N1
10 C6 17.529 11.622 14.862 C.2 1 N1
11 C7 17.616 12.175 13.454 C.3 1 N1
12 C8 16.683 11.555 12.394 C.3 1 N1
13 C9 16.918 12.264 11.051 C.2 1 N1
14 H1 17.511 10.881 19.386 H 1 N1
15 H2 17.172 8.717 16.621 H 1 N1
16 H3 17.779 12.713 18.087 H 1 N1
17 H4 17.243 9.542 14.306 H 1 N1
18 H5 17.853 13.556 15.785 H 1 N1
19 H6 18.659 12.061 13.129 H 1 N1
20 H7 17.428 13.257 13.485 H 1 N1
21 H8 14.698 11.472 11.940 H 1 N1
22 H9 15.038 12.600 13.053 H 1 N1
23 H10 16.925 10.499 12.231 H 1 N1
24 H11 16.104 12.825 9.485 H 1 N1
 
@<TRIPOS>BOND
1 13 12 1
2 13 2 2
3 13 3 1
4 12 4 1
5 12 11 1
6 10 9 2
7 10 8 1
8 9 7 1
9 8 6 2
10 7 5 2
11 6 5 1
12 5 1 1
13 11 10 1
14 24 3 1
15 22 4 1
16 21 4 1
17 20 11 1
18 19 11 1
19 23 12 1
20 15 6 1
21 16 7 1
22 17 8 1
23 18 9 1
24 14 1 1
