#exported by Narupa Builder at 12/08/2019
 
@<TRIPOS>MOLECULE
narupa builder molecule
8 7 0 0 0
SMALL
GASTEIGER
 
@<TRIPOS>ATOM
1 C1 1.748 15.050 0.595 C.3 1 N1
2 C2 2.971 14.537 -0.131 C.3 1 N1
3 H1 0.918 14.343 0.496 H 1 N1
4 H2 1.961 15.185 1.659 H 1 N1
5 H3 1.431 16.012 0.182 H 1 N1
6 H4 2.758 14.402 -1.196 H 1 N1
7 H5 3.288 13.575 0.282 H 1 N1
8 H6 3.801 15.244 -0.033 H 1 N1
 
@<TRIPOS>BOND
1 5 1 1
2 4 1 1
3 3 1 1
4 2 1 1
5 8 2 1
6 7 2 1
7 6 2 1
