#exported by Narupa Builder at 12/08/2019
 
@<TRIPOS>MOLECULE
narupa builder molecule
14 13 0 0 0
SMALL
GASTEIGER
 
@<TRIPOS>ATOM
1 C1 1.530 14.928 0.694 C.3 1 N1
2 C2 2.732 14.421 -0.087 C.3 1 N1
3 C3 3.879 15.428 -0.066 C.3 1 N1
4 C4 5.081 14.921 -0.847 C.3 1 N1
5 H1 0.721 14.191 0.666 H 1 N1
6 H2 1.791 15.106 1.743 H 1 N1
7 H3 1.153 15.864 0.270 H 1 N1
8 H4 2.429 14.222 -1.122 H 1 N1
9 H5 3.064 13.468 0.342 H 1 N1
10 H6 4.181 15.627 0.969 H 1 N1
11 H7 3.547 16.381 -0.495 H 1 N1
12 H8 4.820 14.743 -1.896 H 1 N1
13 H9 5.458 13.985 -0.423 H 1 N1
14 H10 5.890 15.657 -0.819 H 1 N1
 
@<TRIPOS>BOND
1 7 1 1
2 6 1 1
3 5 1 1
4 2 1 1
5 3 2 1
6 9 2 1
7 8 2 1
8 11 3 1
9 10 3 1
10 4 3 1
11 14 4 1
12 13 4 1
13 12 4 1
