#exported by Narupa Builder at 12/08/2019
 
@<TRIPOS>MOLECULE
narupa builder molecule
14 13 0 0 0
SMALL
GASTEIGER
 
@<TRIPOS>ATOM
1 C1 4.062 15.295 0.048 C.3 1 N1
2 C2 1.680 14.924 0.751 C.3 1 N1
3 C3 2.841 14.387 -0.084 C.3 1 N1
4 C4 2.431 14.249 -1.549 C.3 1 N1
5 H1 4.906 14.898 -0.526 H 1 N1
6 H2 4.377 15.373 1.094 H 1 N1
7 H3 3.849 16.305 -0.318 H 1 N1
8 H4 0.812 14.259 0.681 H 1 N1
9 H5 1.962 14.997 1.806 H 1 N1
10 H6 1.373 15.919 0.413 H 1 N1
11 H7 3.108 13.393 0.295 H 1 N1
12 H8 1.573 13.576 -1.650 H 1 N1
13 H9 3.252 13.838 -2.145 H 1 N1
14 H10 2.153 15.218 -1.978 H 1 N1
 
@<TRIPOS>BOND
1 10 2 1
2 9 2 1
3 8 2 1
4 3 2 1
5 1 3 1
6 11 3 1
7 4 3 1
8 7 1 1
9 6 1 1
10 5 1 1
11 14 4 1
12 13 4 1
13 12 4 1
