#exported by Narupa Builder at 20/08/2019
 
@<TRIPOS>MOLECULE
narupa builder molecule
16 15 0 0 0
SMALL
GASTEIGER
 
@<TRIPOS>ATOM
1 O1 20.019 11.294 14.649 O.3 1 N1
2 O2 19.228 9.777 13.179 O.2 1 N1
3 O3 18.626 12.154 10.978 O.2 1 N1
4 O4 16.710 11.327 10.181 O.3 1 N1
5 N1 15.630 11.934 12.708 N.3 1 N1
6 C1 19.090 10.830 13.780 C.2 1 N1
7 C2 17.879 11.727 13.693 C.3 1 N1
8 C3 16.953 11.270 12.567 C.3 1 N1
9 C4 17.552 11.620 11.198 C.2 1 N1
10 H1 19.782 12.145 15.065 H 1 N1
11 H2 18.212 12.760 13.531 H 1 N1
12 H3 17.364 11.667 14.659 H 1 N1
13 H4 15.048 11.605 11.931 H 1 N1
14 H5 15.737 12.937 12.548 H 1 N1
15 H6 16.802 10.185 12.603 H 1 N1
16 H7 17.214 11.578 9.377 H 1 N1
 
@<TRIPOS>BOND
1 9 8 1
2 9 3 2
3 9 4 1
4 8 5 1
5 8 7 1
6 6 2 2
7 6 1 1
8 7 6 1
9 16 4 1
10 14 5 1
11 13 5 1
12 12 7 1
13 11 7 1
14 15 8 1
15 10 1 1
