#exported by Narupa Builder at 20/08/2019
 
@<TRIPOS>MOLECULE
narupa builder molecule
14 13 0 0 0
SMALL
GASTEIGER
 
@<TRIPOS>ATOM
1 S1 18.605 11.815 14.238 S.3 1 N1
2 O1 15.533 12.556 10.164 O.3 1 N1
3 O2 17.659 13.157 9.869 O.2 1 N1
4 N1 15.811 11.823 12.703 N.3 1 N1
5 C1 16.823 12.611 10.570 C.2 1 N1
6 C2 17.069 11.900 11.907 C.3 1 N1
7 C3 18.184 12.635 12.665 C.3 1 N1
8 H1 15.538 13.013 9.296 H 1 N1
9 H2 15.092 11.436 12.083 H 1 N1
10 H3 15.488 12.773 12.894 H 1 N1
11 H4 17.382 10.877 11.665 H 1 N1
12 H5 19.096 12.690 12.061 H 1 N1
13 H6 17.882 13.665 12.888 H 1 N1
14 H7 17.332 11.602 14.614 H 1 N1
 
@<TRIPOS>BOND
1 5 6 1
2 5 3 2
3 5 2 1
4 6 4 1
5 6 7 1
6 1 7 1
7 8 2 1
8 10 4 1
9 9 4 1
10 13 7 1
11 12 7 1
12 11 6 1
13 14 1 1
