#exported by Narupa Builder at 20/08/2019
 
@<TRIPOS>MOLECULE
narupa builder molecule
19 18 0 0 0
SMALL
GASTEIGER
 
@<TRIPOS>ATOM
1 O1 19.785 12.138 16.224 O.3 1 N1
2 O2 19.509 14.083 15.170 O.2 1 N1
3 O3 17.766 13.327 10.155 O.2 1 N1
4 O4 15.594 12.896 10.402 O.3 1 N1
5 N1 15.738 11.846 12.816 N.3 1 N1
6 C1 19.242 12.896 15.251 C.2 1 N1
7 C2 18.306 12.109 14.378 C.3 1 N1
8 C3 17.972 12.872 13.095 C.3 1 N1
9 C4 17.047 12.086 12.161 C.3 1 N1
10 C5 16.876 12.837 10.831 C.2 1 N1
11 H1 20.349 12.763 16.726 H 1 N1
12 H2 17.402 11.902 14.961 H 1 N1
13 H3 18.789 11.159 14.120 H 1 N1
14 H4 18.907 13.110 12.570 H 1 N1
15 H5 17.519 13.841 13.343 H 1 N1
16 H6 15.118 11.441 12.108 H 1 N1
17 H7 15.310 12.753 13.016 H 1 N1
18 H8 17.485 11.111 11.919 H 1 N1
19 H9 15.657 13.383 9.553 H 1 N1
 
@<TRIPOS>BOND
1 10 9 1
2 10 3 2
3 10 4 1
4 9 5 1
5 9 8 1
6 7 8 1
7 6 2 2
8 6 1 1
9 7 6 1
10 19 4 1
11 17 5 1
12 16 5 1
13 15 8 1
14 14 8 1
15 18 9 1
16 13 7 1
17 12 7 1
18 11 1 1
