#exported by Narupa Builder at 20/08/2019
 
@<TRIPOS>MOLECULE
narupa builder molecule
10 9 0 0 0
SMALL
GASTEIGER
 
@<TRIPOS>ATOM
1 O1 15.617 13.037 10.086 O.3 1 N1
2 O2 17.788 13.491 9.849 O.2 1 N1
3 N1 15.829 11.856 12.459 N.3 1 N1
4 C1 17.099 12.105 11.747 C.3 1 N1
5 C2 16.903 12.950 10.493 C.2 1 N1
6 H1 15.164 11.490 11.772 H 1 N1
7 H2 15.432 12.759 12.724 H 1 N1
8 H3 15.669 13.580 9.271 H 1 N1
9 H4 17.538 11.148 11.452 H 1 N1
10 H5 17.782 12.632 12.420 H 1 N1
 
@<TRIPOS>BOND
1 5 4 1
2 5 2 2
3 5 1 1
4 4 3 1
5 8 1 1
6 7 3 1
7 6 3 1
8 10 4 1
9 9 4 1
