#exported by Narupa Builder at 20/08/2019
 
@<TRIPOS>MOLECULE
narupa builder molecule
20 20 0 0 0
SMALL
GASTEIGER
 
@<TRIPOS>ATOM
1 O1 16.383 12.146 10.402 O.3 1 N1
2 O2 18.442 12.867 10.838 O.2 1 N1
3 N1 17.946 10.805 16.903 N.3 1 N1
4 N2 19.398 11.513 15.390 N.2 1 N1
5 N3 15.734 11.558 12.887 N.3 1 N1
6 C1 19.259 10.901 16.544 C.2 1 N1
7 C2 17.206 11.401 15.921 C.2 1 N1
8 C3 18.121 11.831 14.983 C.2 1 N1
9 C4 17.894 12.554 13.699 C.3 1 N1
10 C5 17.200 11.696 12.630 C.3 1 N1
11 C6 17.435 12.310 11.241 C.2 1 N1
12 H1 17.591 10.371 17.744 H 1 N1
13 H2 20.061 10.511 17.156 H 1 N1
14 H3 16.127 11.456 15.960 H 1 N1
15 H4 18.869 12.897 13.331 H 1 N1
16 H5 17.316 13.467 13.892 H 1 N1
17 H6 15.333 11.115 12.055 H 1 N1
18 H7 15.321 12.491 12.897 H 1 N1
19 H8 16.696 12.549 9.564 H 1 N1
20 H9 17.631 10.689 12.601 H 1 N1
 
@<TRIPOS>BOND
1 11 10 1
2 11 2 2
3 11 1 1
4 10 5 1
5 10 9 1
6 4 6 2
7 4 8 1
8 8 7 2
9 6 3 1
10 7 3 1
11 9 8 1
12 19 1 1
13 12 3 1
14 18 5 1
15 17 5 1
16 13 6 1
17 14 7 1
18 16 9 1
19 15 9 1
20 20 10 1
