#exported by Narupa Builder at 20/08/2019
 
@<TRIPOS>MOLECULE
narupa builder molecule
20 19 0 0 0
SMALL
GASTEIGER
 
@<TRIPOS>ATOM
1 S1 18.831 13.268 14.536 S.3 1 N1
2 O1 15.265 12.914 9.334 O.3 1 N1
3 O2 17.438 13.385 9.197 O.2 1 N1
4 N1 15.292 11.920 11.771 N.3 1 N1
5 C1 16.523 12.888 9.833 C.2 1 N1
6 C2 16.633 12.166 11.186 C.3 1 N1
7 C3 17.503 12.986 12.147 C.3 1 N1
8 C4 17.743 12.264 13.472 C.3 1 N1
9 C5 18.829 12.205 15.999 C.3 1 N1
10 H1 15.366 13.388 8.481 H 1 N1
11 H2 14.714 11.507 11.032 H 1 N1
12 H3 14.848 12.825 11.942 H 1 N1
13 H4 17.095 11.193 10.987 H 1 N1
14 H5 18.468 13.191 11.662 H 1 N1
15 H6 17.034 13.963 12.325 H 1 N1
16 H7 16.800 12.100 14.001 H 1 N1
17 H8 18.221 11.295 13.295 H 1 N1
18 H9 19.257 11.228 15.760 H 1 N1
19 H10 17.811 12.079 16.378 H 1 N1
20 H11 19.435 12.668 16.782 H 1 N1
 
@<TRIPOS>BOND
1 5 6 1
2 5 3 2
3 5 2 1
4 6 4 1
5 6 7 1
6 8 7 1
7 9 1 1
8 8 1 1
9 10 2 1
10 12 4 1
11 11 4 1
12 15 7 1
13 14 7 1
14 13 6 1
15 17 8 1
16 16 8 1
17 20 9 1
18 19 9 1
19 18 9 1
