#exported by Narupa Builder at 20/08/2019
 
@<TRIPOS>MOLECULE
narupa builder molecule
23 23 0 0 0
SMALL
GASTEIGER
 
@<TRIPOS>ATOM
1 O1 15.957 12.367 10.109 O.3 1 N1
2 O2 18.154 12.486 10.453 O.2 1 N1
3 N1 15.287 11.899 12.620 N.3 1 N1
4 C1 17.534 10.504 17.231 C.2 1 N1
5 C2 18.249 9.903 16.197 C.2 1 N1
6 C3 16.855 11.699 17.004 C.2 1 N1
7 C4 18.288 10.499 14.935 C.2 1 N1
8 C5 16.890 12.295 15.742 C.2 1 N1
9 C6 17.610 11.702 14.696 C.2 1 N1
10 C7 17.651 12.345 13.329 C.3 1 N1
11 C8 16.723 11.680 12.297 C.3 1 N1
12 C9 17.048 12.224 10.898 C.2 1 N1
13 H1 17.503 10.040 18.213 H 1 N1
14 H2 18.776 8.969 16.373 H 1 N1
15 H3 16.293 12.167 17.808 H 1 N1
16 H4 18.851 10.017 14.140 H 1 N1
17 H5 16.347 13.223 15.579 H 1 N1
18 H6 18.692 12.314 12.979 H 1 N1
19 H7 17.417 13.416 13.413 H 1 N1
20 H8 14.746 11.584 11.810 H 1 N1
21 H9 15.111 12.902 12.669 H 1 N1
22 H10 16.325 12.687 9.257 H 1 N1
23 H11 16.896 10.599 12.259 H 1 N1
 
@<TRIPOS>BOND
1 12 11 1
2 12 2 2
3 12 1 1
4 11 3 1
5 11 10 1
6 23 11 1
7 22 1 1
8 21 3 1
9 20 3 1
10 19 10 1
11 18 10 1
12 8 6 2
13 8 9 1
14 6 4 1
15 9 7 2
16 4 5 2
17 7 5 1
18 4 13 1
19 5 14 1
20 7 16 1
21 8 17 1
22 6 15 1
23 10 9 1
