#exported by Narupa Builder at 20/08/2019
 
@<TRIPOS>MOLECULE
narupa builder molecule
17 17 0 0 0
SMALL
GASTEIGER
 
@<TRIPOS>ATOM
1 O1 14.994 12.951 9.560 O.3 1 N1
2 O2 16.934 14.050 9.573 O.2 1 N1
3 N1 15.417 12.166 12.203 N.3 1 N1
4 C1 17.369 12.223 13.529 C.3 1 N1
5 C2 15.988 11.590 13.414 C.3 1 N1
6 C3 17.620 12.896 12.184 C.3 1 N1
7 C4 16.555 12.315 11.271 C.3 1 N1
8 C5 16.209 13.216 10.093 C.2 1 N1
9 H1 18.126 11.457 13.731 H 1 N1
10 H2 17.410 12.960 14.339 H 1 N1
11 H3 16.075 10.502 13.315 H 1 N1
12 H4 15.367 11.805 14.289 H 1 N1
13 H5 18.632 12.698 11.815 H 1 N1
14 H6 17.514 13.984 12.287 H 1 N1
15 H7 14.702 11.569 11.790 H 1 N1
16 H8 14.916 13.601 8.832 H 1 N1
17 H9 16.863 11.337 10.881 H 1 N1
 
@<TRIPOS>BOND
1 8 7 1
2 8 2 2
3 8 1 1
4 7 3 1
5 7 6 1
6 4 6 1
7 4 5 1
8 3 5 1
9 16 1 1
10 15 3 1
11 14 6 1
12 13 6 1
13 17 7 1
14 10 4 1
15 9 4 1
16 12 5 1
17 11 5 1
