#exported by Narupa Builder at 20/08/2019
 
@<TRIPOS>MOLECULE
narupa builder molecule
14 13 0 0 0
SMALL
GASTEIGER
 
@<TRIPOS>ATOM
1 O1 18.234 12.060 14.053 O.3 1 N1
2 O2 17.612 13.321 9.965 O.2 1 N1
3 O3 15.514 12.614 10.221 O.3 1 N1
4 N1 15.825 11.732 12.726 N.3 1 N1
5 C1 18.093 12.701 12.782 C.3 1 N1
6 C2 17.073 11.942 11.928 C.3 1 N1
7 C3 16.799 12.705 10.634 C.2 1 N1
8 H1 17.347 11.691 14.250 H 1 N1
9 H2 19.075 12.725 12.299 H 1 N1
10 H3 17.778 13.735 12.958 H 1 N1
11 H4 15.145 11.298 12.092 H 1 N1
12 H5 15.417 12.649 12.924 H 1 N1
13 H6 17.460 10.951 11.668 H 1 N1
14 H7 15.500 13.114 9.377 H 1 N1
 
@<TRIPOS>BOND
1 7 6 1
2 7 2 2
3 7 3 1
4 6 4 1
5 6 5 1
6 1 5 1
7 14 3 1
8 12 4 1
9 11 4 1
10 10 5 1
11 9 5 1
12 13 6 1
13 8 1 1
