#exported by Narupa Builder at 20/08/2019
 
@<TRIPOS>MOLECULE
narupa builder molecule
27 28 0 0 0
SMALL
GASTEIGER
 
@<TRIPOS>ATOM
1 O1 16.614 13.368 11.763 O.3 1 N1
2 O2 18.374 12.418 10.787 O.2 1 N1
3 N1 16.302 6.593 12.714 N.3 1 N1
4 N2 15.577 11.201 12.816 N.3 1 N1
5 C1 19.851 5.540 12.331 C.2 1 N1
6 C2 20.298 6.705 11.713 C.2 1 N1
7 C3 18.515 5.396 12.714 C.2 1 N1
8 C4 19.415 7.762 11.460 C.2 1 N1
9 C5 17.645 6.461 12.451 C.2 1 N1
10 C6 18.060 7.641 11.833 C.2 1 N1
11 C7 15.850 7.806 12.275 C.2 1 N1
12 C8 16.914 8.495 11.724 C.2 1 N1
13 C9 16.870 9.869 11.124 C.3 1 N1
14 C10 16.906 10.997 12.170 C.3 1 N1
15 C11 17.386 12.289 11.494 C.2 1 N1
16 H1 20.552 4.730 12.518 H 1 N1
17 H2 21.341 6.798 11.422 H 1 N1
18 H3 18.170 4.487 13.196 H 1 N1
19 H4 19.776 8.665 10.976 H 1 N1
20 H5 15.736 5.890 13.168 H 1 N1
21 H6 14.814 8.089 12.404 H 1 N1
22 H7 15.971 9.962 10.498 H 1 N1
23 H8 17.712 9.969 10.427 H 1 N1
24 H9 14.903 11.438 12.087 H 1 N1
25 H10 15.644 12.051 13.380 H 1 N1
26 H11 17.058 14.098 11.282 H 1 N1
27 H12 17.628 10.775 12.964 H 1 N1
 
@<TRIPOS>BOND
1 15 14 1
2 15 2 2
3 15 1 1
4 14 4 1
5 13 14 1
6 13 12 1
7 12 11 2
8 11 3 1
9 3 9 1
10 12 10 1
11 9 10 1
12 9 7 2
13 7 5 1
14 5 6 2
15 6 8 1
16 10 8 2
17 26 1 1
18 25 4 1
19 24 4 1
20 27 14 1
21 23 13 1
22 22 13 1
23 21 11 1
24 20 3 1
25 18 7 1
26 16 5 1
27 17 6 1
28 19 8 1
