#exported by Narupa Builder at 20/08/2019
 
@<TRIPOS>MOLECULE
narupa builder molecule
19 18 0 0 0
SMALL
GASTEIGER
 
@<TRIPOS>ATOM
1 O1 14.876 13.495 10.082 O.3 1 N1
2 O2 16.745 12.800 9.085 O.2 1 N1
3 N1 14.888 11.576 11.924 N.3 1 N1
4 C1 18.515 12.884 11.759 C.3 1 N1
5 C2 17.266 11.833 13.641 C.3 1 N1
6 C3 17.116 12.625 12.334 C.3 1 N1
7 C4 16.208 11.895 11.318 C.3 1 N1
8 C5 16.000 12.742 10.050 C.2 1 N1
9 H1 18.986 11.953 11.427 H 1 N1
10 H2 19.167 13.343 12.511 H 1 N1
11 H3 18.478 13.572 10.909 H 1 N1
12 H4 17.666 10.831 13.452 H 1 N1
13 H5 16.307 11.727 14.158 H 1 N1
14 H6 17.948 12.344 14.329 H 1 N1
15 H7 16.674 13.601 12.578 H 1 N1
16 H8 14.329 11.078 11.231 H 1 N1
17 H9 14.396 12.465 12.053 H 1 N1
18 H10 14.897 13.978 9.229 H 1 N1
19 H11 16.660 10.946 11.008 H 1 N1
 
@<TRIPOS>BOND
1 8 7 1
2 8 2 2
3 8 1 1
4 7 3 1
5 7 6 1
6 5 6 1
7 4 6 1
8 18 1 1
9 17 3 1
10 16 3 1
11 15 6 1
12 19 7 1
13 11 4 1
14 10 4 1
15 9 4 1
16 14 5 1
17 13 5 1
18 12 5 1
