#exported by Narupa Builder at 20/08/2019
 
@<TRIPOS>MOLECULE
narupa builder molecule
16 17 0 0 0
SMALL
GASTEIGER
 
@<TRIPOS>ATOM
1 O1 -6.271 27.121 23.069 O.2 1 N1
2 N1 -5.198 26.951 26.768 N.2 1 N1
3 N2 -4.292 31.575 21.064 N.3 1 N1
4 N3 -5.361 29.304 22.418 N.3 1 N1
5 N4 -3.464 29.357 27.326 N.3 1 N1
6 N5 -3.519 31.041 23.886 N.2 1 N1
7 C1 -5.489 28.151 23.339 C.2 1 N1
8 C2 -4.171 27.342 28.242 C.2 1 N1
9 C3 -4.774 28.317 25.344 C.2 1 N1
10 C4 -4.396 30.616 22.414 C.2 1 N1
11 C5 -3.623 29.908 25.315 C.2 1 N1
12 H1 -4.060 26.783 29.064 H 1 N1
13 H2 -3.436 31.384 20.584 H 1 N1
14 H3 -4.313 32.537 21.336 H 1 N1
15 H4 -6.303 29.640 22.431 H 1 N1
16 H5 -3.953 30.099 27.785 H 1 N1
 
@<TRIPOS>BOND
1 6 11 1
2 6 10 2
3 5 11 1
4 11 9 2
5 10 4 1
6 10 3 1
7 5 8 1
8 16 5 1
9 2 9 1
10 9 7 1
11 7 4 1
12 15 4 1
13 14 3 1
14 13 3 1
15 2 8 2
16 12 8 1
17 7 1 2
