#exported by Narupa Builder at 10/08/2019
 
@<TRIPOS>MOLECULE
narupa builder molecule
8 7 0 0 0
SMALL
GASTEIGER
 
@<TRIPOS>ATOM
1 O1 -0.174 12.755 10.723 O.2 1 N1
2 O2 -4.373 12.747 9.168 O.2 1 N1
3 N1 -2.274 12.735 9.948 N.3 1 N1
4 C1 -1.186 12.137 10.464 C.2 1 N1
5 C2 -3.434 12.133 9.632 C.2 1 N1
6 H1 -0.930 11.106 10.753 H 1 N1
7 H2 -2.215 13.729 9.783 H 1 N1
8 H3 -3.813 11.101 9.685 H 1 N1
 
@<TRIPOS>BOND
1 4 3 1
2 5 3 1
3 4 1 2
4 5 2 2
5 6 4 1
6 8 5 1
7 7 3 1
