#exported by Narupa Builder at 08/08/2019
 
@<TRIPOS>MOLECULE
narupa builder molecule
7 6 1 0 0
SMALL
GASTEIGER
 
@<TRIPOS>ATOM
1 O1 5.409 9.046 4.371 O.2 1 N1
2 C1 5.762 6.098 4.188 C.3 1 N1
3 C2 5.487 7.629 4.996 C.2 1 N1
4 H1 4.908 5.577 4.161 H 1 N1
5 H2 6.454 5.577 4.686 H 1 N1
6 H3 6.079 6.266 3.254 H 1 N1
7 H4 5.352 7.707 5.983 H 1 N1
 
@<TRIPOS>BOND
1 3 2 1
2 3 1 2
3 7 3 1
4 6 2 1
5 5 2 1
6 4 2 1
