#exported by Narupa Builder at 20/08/2019
 
@<TRIPOS>MOLECULE
narupa builder molecule
6 5 0 0 0
SMALL
GASTEIGER
 
@<TRIPOS>ATOM
1 P1 18.856 12.344 14.424 P.2 1 N1
2 O1 17.617 11.639 15.162 O.3 1 N1
3 O2 19.184 11.131 13.425 O.3 1 N1
4 O3 18.004 13.024 13.456 O.2 1 N1
5 H1 16.849 12.017 14.685 H 1 N1
6 H2 18.727 11.409 12.604 H 1 N1
 
@<TRIPOS>BOND
1 1 4 2
2 1 3 1
3 1 2 1
4 6 3 1
5 5 2 1
