#exported by Narupa Builder at 20/08/2019
 
@<TRIPOS>MOLECULE
narupa builder molecule
7 6 0 0 0
SMALL
GASTEIGER
 
@<TRIPOS>ATOM
1 S1 18.667 12.451 13.548 S.1 1 N1
2 O1 17.225 11.748 13.533 O.3 1 N1
3 O2 19.587 11.281 12.952 O.3 1 N1
4 O3 19.013 12.640 14.934 O.2 1 N1
5 O4 18.667 13.508 12.569 O.2 1 N1
6 H1 17.139 11.245 14.369 H 1 N1
7 H2 19.554 11.355 11.976 H 1 N1
 
@<TRIPOS>BOND
1 1 5 2
2 1 4 2
3 1 3 1
4 1 2 1
5 7 3 1
6 6 2 1
