#exported by Narupa Builder at 12/08/2019
 
@<TRIPOS>MOLECULE
narupa builder molecule
5 4 0 0 0
SMALL
GASTEIGER
 
@<TRIPOS>ATOM
1 C1 1.907 14.969 0.495 C.3 1 N1
2 H1 2.799 14.605 -0.020 H 1 N1
3 H2 1.015 14.605 -0.020 H 1 N1
4 H3 1.907 14.605 1.525 H 1 N1
5 H4 1.907 16.061 0.495 H 1 N1
 
@<TRIPOS>BOND
1 5 1 1
2 4 1 1
3 3 1 1
4 2 1 1
