#exported by Narupa Builder at 12/08/2019
 
@<TRIPOS>MOLECULE
narupa builder molecule
11 10 0 0 0
SMALL
GASTEIGER
 
@<TRIPOS>ATOM
1 C1 1.640 14.923 0.619 C.3 1 N1
2 C2 2.808 14.424 -0.214 C.3 1 N1
3 C3 4.017 15.336 -0.088 C.3 1 N1
4 H1 0.783 14.250 0.512 H 1 N1
5 H2 1.906 14.967 1.680 H 1 N1
6 H3 1.330 15.923 0.301 H 1 N1
7 H4 2.506 14.362 -1.266 H 1 N1
8 H5 3.080 13.412 0.106 H 1 N1
9 H6 4.844 14.956 -0.697 H 1 N1
10 H7 4.358 15.393 0.950 H 1 N1
11 H8 3.782 16.349 -0.429 H 1 N1
 
@<TRIPOS>BOND
1 6 1 1
2 5 1 1
3 4 1 1
4 2 1 1
5 3 2 1
6 8 2 1
7 7 2 1
8 11 3 1
9 10 3 1
10 9 3 1
