#exported by Narupa Builder at 20/08/2019
 
@<TRIPOS>MOLECULE
narupa builder molecule
7 6 0 0 0
SMALL
GASTEIGER
 
@<TRIPOS>ATOM
1 O1 19.199 12.048 14.443 O.3 1 N1
2 O2 18.610 11.874 12.231 O.3 1 N1
3 C1 18.135 11.806 13.554 C.3 1 N1
4 H1 19.299 13.010 14.509 H 1 N1
5 H2 17.324 12.523 13.713 H 1 N1
6 H3 17.754 10.797 13.735 H 1 N1
7 H4 18.627 12.811 11.984 H 1 N1
 
@<TRIPOS>BOND
1 3 2 1
2 3 1 1
3 4 1 1
4 7 2 1
5 6 3 1
6 5 3 1
