#exported by Narupa Builder at 10/08/2019
 
@<TRIPOS>MOLECULE
narupa builder molecule
7 6 0 0 0
SMALL
GASTEIGER
 
@<TRIPOS>ATOM
1 O1 -2.987 13.543 9.635 O.2 1 N1
2 O2 -1.611 11.794 10.180 O.3 1 N1
3 O3 -0.316 13.655 10.515 O.2 1 N1
4 C1 -2.771 12.354 9.767 C.2 1 N1
5 C2 -0.478 12.450 10.522 C.2 1 N1
6 H1 -3.645 11.739 9.508 H 1 N1
7 H2 0.398 11.868 10.843 H 1 N1
 
@<TRIPOS>BOND
1 4 2 1
2 5 2 1
3 5 3 2
4 4 1 2
5 6 4 1
6 7 5 1
