#exported by Narupa Builder at 08/08/2019
 
@<TRIPOS>MOLECULE
narupa builder molecule
6 5 1 0 0
SMALL
GASTEIGER
 
@<TRIPOS>ATOM
1 O1 5.337 8.595 4.246 O.2 1 N1
2 N1 5.980 6.450 4.225 N.3 1 N1
3 C1 5.601 7.578 4.853 C.2 1 N1
4 H1 6.192 5.621 4.759 H 1 N1
5 H2 6.053 6.432 3.219 H 1 N1
6 H3 5.493 7.695 5.942 H 1 N1
 
@<TRIPOS>BOND
1 3 2 1
2 3 1 2
3 6 3 1
4 5 2 1
5 4 2 1
