#exported by Narupa Builder at 10/08/2019
 
@<TRIPOS>MOLECULE
narupa builder molecule
6 5 0 0 0
SMALL
GASTEIGER
 
@<TRIPOS>ATOM
1 O1 -0.572 11.516 9.696 O.3 1 N1
2 O2 -1.738 13.401 9.312 O.2 1 N1
3 O3 -2.565 11.428 8.616 O.3 1 N1
4 C1 -1.632 12.195 9.214 C.2 1 N1
5 H1 0.188 12.025 10.169 H 1 N1
6 H2 -3.409 11.866 8.220 H 1 N1
 
@<TRIPOS>BOND
1 4 2 2
2 4 1 1
3 4 3 1
4 5 1 1
5 6 3 1
