#exported by Narupa Builder at 10/08/2019
 
@<TRIPOS>MOLECULE
narupa builder molecule
5 4 0 0 0
SMALL
GASTEIGER
 
@<TRIPOS>ATOM
1 O1 -1.264 12.531 11.383 O.2 1 N1
2 O2 0.077 10.814 10.990 O.3 1 N1
3 C1 -1.104 11.354 11.129 C.2 1 N1
4 H1 -1.998 10.725 11.014 H 1 N1
5 H2 0.737 11.517 11.126 H 1 N1
 
@<TRIPOS>BOND
1 3 1 2
2 3 2 1
3 4 3 1
4 5 2 1
