#exported by Narupa Builder at 10/08/2019
 
@<TRIPOS>MOLECULE
narupa builder molecule
4 3 0 0 0
SMALL
GASTEIGER
 
@<TRIPOS>ATOM
1 O1 -2.142 12.655 9.508 O.3 1 N1
2 N1 -0.643 11.007 9.635 N.1 1 N1
3 C1 -1.034 12.042 9.901 C.1 1 N1
4 H1 -2.028 13.615 9.625 H 1 N1
 
@<TRIPOS>BOND
1 1 3 1
2 3 2 3
3 4 1 1
