#exported by Narupa Builder at 16/08/2019
 
@<TRIPOS>MOLECULE
narupa builder molecule
9 8 0 0 0
SMALL
GASTEIGER
 
@<TRIPOS>ATOM
1 N1 26.918 22.258 14.723 N.3 1 N1
2 N2 25.695 23.907 13.717 N.2 1 N1
3 N3 26.398 22.006 12.566 N.3 1 N1
4 C1 26.301 22.784 13.654 C.2 1 N1
5 H1 26.678 21.286 14.873 H 1 N1
6 H2 26.694 22.807 15.548 H 1 N1
7 H3 25.274 24.122 12.811 H 1 N1
8 H4 27.285 21.517 12.517 H 1 N1
9 H5 26.191 22.471 11.692 H 1 N1
 
@<TRIPOS>BOND
1 4 2 2
2 4 3 1
3 4 1 1
4 7 2 1
5 9 3 1
6 8 3 1
7 6 1 1
8 5 1 1
