#exported by Narupa Builder at 10/08/2019
 
@<TRIPOS>MOLECULE
narupa builder molecule
5 4 0 0 0
SMALL
GASTEIGER
 
@<TRIPOS>ATOM
1 N1 -2.346 12.615 10.030 N.2 1 N1
2 C1 -2.346 11.327 10.035 C.2 1 N1
3 H1 -2.440 10.750 9.103 H 1 N1
4 H2 -2.259 10.635 10.886 H 1 N1
5 H3 -2.249 12.976 10.988 H 1 N1
 
@<TRIPOS>BOND
1 2 1 2
2 4 2 1
3 3 2 1
4 5 1 1
