#exported by Narupa Builder at 10/08/2019
 
@<TRIPOS>MOLECULE
narupa builder molecule
4 3 0 0 0
SMALL
GASTEIGER
 
@<TRIPOS>ATOM
1 O1 -0.132 11.703 10.092 O.2 1 N1
2 N1 -1.768 13.389 9.780 N.2 1 N1
3 C1 -0.990 12.485 9.984 C.1 1 N1
4 H1 -2.742 13.298 9.462 H 1 N1
 
@<TRIPOS>BOND
1 2 3 2
2 3 1 2
3 4 2 1
