#exported by Narupa Builder at 10/08/2019
 
@<TRIPOS>MOLECULE
narupa builder molecule
4 3 0 0 0
SMALL
GASTEIGER
 
@<TRIPOS>ATOM
1 O1 -2.175 11.402 10.250 O.3 1 N1
2 O2 -0.121 11.519 10.917 O.2 1 N1
3 N1 -1.105 12.183 10.684 N.2 1 N1
4 H1 -2.877 12.061 10.106 H 1 N1
 
@<TRIPOS>BOND
1 1 3 1
2 2 3 2
3 4 1 1
