#exported by Narupa Builder at 20/08/2019
 
@<TRIPOS>MOLECULE
narupa builder molecule
6 5 0 0 0
SMALL
GASTEIGER
 
@<TRIPOS>ATOM
1 O1 19.787 11.401 14.692 O.3 1 N1
2 O2 19.347 13.231 13.516 O.2 1 N1
3 O3 19.714 11.404 12.312 O.3 1 N1
4 N1 19.607 12.052 13.507 N.2 1 N1
5 H1 19.638 12.157 15.281 H 1 N1
6 H2 19.529 12.162 11.736 H 1 N1
 
@<TRIPOS>BOND
1 4 2 2
2 4 3 1
3 4 1 1
4 6 3 1
5 5 1 1
