#exported by Narupa Builder at 16/08/2019
 
@<TRIPOS>MOLECULE
narupa builder molecule
26 28 0 0 0
SMALL
GASTEIGER
 
@<TRIPOS>ATOM
1 C1 14.782 11.680 12.568 C.3 1 N1
2 C2 15.749 12.833 12.888 C.3 1 N1
3 C3 15.538 10.533 11.874 C.3 1 N1
4 C4 16.376 13.344 11.579 C.3 1 N1
5 C5 16.165 11.057 10.571 C.3 1 N1
6 C6 16.864 12.315 13.813 C.3 1 N1
7 C7 16.654 10.028 12.805 C.3 1 N1
8 C8 17.141 12.207 10.880 C.3 1 N1
9 C9 17.632 11.171 13.127 C.3 1 N1
10 C10 18.248 11.692 11.816 C.3 1 N1
11 H1 13.972 12.039 11.922 H 1 N1
12 H2 14.315 11.316 13.492 H 1 N1
13 H3 15.206 13.646 13.382 H 1 N1
14 H4 14.844 9.715 11.649 H 1 N1
15 H5 15.593 13.732 10.916 H 1 N1
16 H6 17.056 14.178 11.791 H 1 N1
17 H7 15.379 11.406 9.891 H 1 N1
18 H8 16.694 10.245 10.057 H 1 N1
19 H9 16.433 11.961 14.758 H 1 N1
20 H10 17.553 13.131 14.063 H 1 N1
21 H11 17.191 9.198 12.329 H 1 N1
22 H12 16.219 9.635 13.733 H 1 N1
23 H13 17.585 12.576 9.949 H 1 N1
24 H14 18.424 10.806 13.789 H 1 N1
25 H15 18.961 12.498 12.032 H 1 N1
26 H16 18.813 10.891 11.323 H 1 N1
 
@<TRIPOS>BOND
1 7 9 1
2 7 3 1
3 9 10 1
4 10 8 1
5 8 5 1
6 3 5 1
7 22 7 1
8 21 7 1
9 24 9 1
10 6 9 1
11 1 3 1
12 14 3 1
13 26 10 1
14 25 10 1
15 23 8 1
16 18 5 1
17 17 5 1
18 1 2 1
19 6 2 1
20 12 1 1
21 11 1 1
22 20 6 1
23 19 6 1
24 13 2 1
25 4 2 1
26 4 8 1
27 16 4 1
28 15 4 1
