#exported by Narupa Builder at 28/07/2019

@<TRIPOS>MOLECULE
narupa builder molecule
12 12 1 0 0
SMALL
NO_CHARGES

@<TRIPOS>ATOM
1 C1 9.302 6.025 4.421 C 1 N1
2 C2 9.116 7.122 3.581 C 1 N1
3 C3 8.688 5.992 5.672 C 1 N1
4 C4 8.315 8.186 3.993 C 1 N1
5 C5 7.887 7.056 6.084 C 1 N1
6 C6 7.701 8.154 5.244 C 1 N1
7 H1 9.941 5.175 4.091 H 1 N1
8 H2 9.612 7.148 2.595 H 1 N1
9 H3 8.836 5.093 6.331 H 1 N1
10 H4 8.196 9.076 3.311 H 1 N1
11 H5 7.397 7.034 7.110 H 1 N1
12 H6 7.082 9.035 5.582 H 1 N1

@<TRIPOS>BOND
1 6 5 1
2 6 4 2
3 5 3 2
4 4 2 1
5 3 1 1
6 2 1 2
7 3 9 1
8 1 7 1
9 2 8 1
10 4 10 1
11 6 12 1
12 5 11 1
