#exported by Narupa Builder at 10/08/2019
 
@<TRIPOS>MOLECULE
narupa builder molecule
22 23 0 0 0
SMALL
GASTEIGER
 
@<TRIPOS>ATOM
1 C1 -2.478 12.711 13.478 C.2 1 N1
2 C2 -2.755 11.559 12.750 C.2 1 N1
3 C3 -3.328 13.807 13.386 C.2 1 N1
4 C4 -3.880 11.497 11.930 C.2 1 N1
5 C5 -4.455 13.759 12.567 C.2 1 N1
6 C6 -4.751 12.600 11.824 C.2 1 N1
7 C7 -5.969 12.540 10.937 C.2 1 N1
8 C8 -6.615 11.314 10.677 C.2 1 N1
9 C9 -6.492 13.708 10.347 C.2 1 N1
10 C10 -7.741 11.266 9.858 C.2 1 N1
11 C11 -7.617 13.646 9.528 C.2 1 N1
12 C12 -8.243 12.429 9.283 C.2 1 N1
13 H1 -1.599 12.754 14.118 H 1 N1
14 H2 -2.089 10.703 12.819 H 1 N1
15 H3 -3.113 14.707 13.958 H 1 N1
16 H4 -4.055 10.586 11.364 H 1 N1
17 H5 -5.103 14.630 12.534 H 1 N1
18 H6 -6.262 10.388 11.121 H 1 N1
19 H7 -6.021 14.675 10.502 H 1 N1
20 H8 -8.232 10.315 9.670 H 1 N1
21 H9 -8.007 14.555 9.075 H 1 N1
22 H10 -9.121 12.386 8.643 H 1 N1
 
@<TRIPOS>BOND
1 12 11 2
2 12 10 1
3 11 9 1
4 10 8 2
5 9 7 2
6 8 7 1
7 9 19 1
8 8 18 1
9 10 20 1
10 12 22 1
11 11 21 1
12 3 1 2
13 3 5 1
14 1 2 1
15 5 6 2
16 2 4 2
17 6 4 1
18 2 14 1
19 4 16 1
20 5 17 1
21 3 15 1
22 1 13 1
23 6 7 1
