#exported by Narupa Builder at 16/08/2019
 
@<TRIPOS>MOLECULE
narupa builder molecule
45 48 0 0 0
SMALL
GASTEIGER
 
@<TRIPOS>ATOM
1 C1 14.604 10.852 13.609 C.3 1 N1
2 C2 13.928 12.200 13.396 C.3 1 N1
3 C3 13.675 9.701 13.239 C.3 1 N1
4 C4 13.391 12.351 11.974 C.3 1 N1
5 C5 13.159 9.839 11.800 C.3 1 N1
6 C6 12.237 8.666 11.452 C.3 1 N1
7 C7 12.449 11.198 11.583 C.3 1 N1
8 C8 11.708 8.771 10.026 C.3 1 N1
9 C9 11.934 11.307 10.121 C.3 1 N1
10 C10 11.235 12.657 9.829 C.3 1 N1
11 C11 10.997 10.108 9.792 C.3 1 N1
12 C12 10.639 12.735 8.417 C.3 1 N1
13 C13 10.494 10.237 8.352 C.3 1 N1
14 C14 9.728 11.546 8.174 C.3 1 N1
15 C15 9.478 9.212 7.859 C.3 1 N1
16 C16 9.155 11.397 6.772 C.3 1 N1
17 C17 8.777 9.912 6.684 C.3 1 N1
18 H1 15.515 10.798 13.001 H 1 N1
19 H2 14.912 10.755 14.656 H 1 N1
20 H3 14.640 13.006 13.607 H 1 N1
21 H4 13.102 12.310 14.110 H 1 N1
22 H5 14.214 8.753 13.354 H 1 N1
23 H6 12.831 9.675 13.939 H 1 N1
24 H7 12.868 13.312 11.916 H 1 N1
25 H8 14.232 12.399 11.270 H 1 N1
26 H9 14.028 9.793 11.127 H 1 N1
27 H10 12.777 7.718 11.565 H 1 N1
28 H11 11.391 8.633 12.151 H 1 N1
29 H12 11.577 11.242 12.253 H 1 N1
30 H13 11.021 7.938 9.842 H 1 N1
31 H14 12.540 8.660 9.319 H 1 N1
32 H15 12.807 11.248 9.453 H 1 N1
33 H16 10.437 12.820 10.565 H 1 N1
34 H17 11.944 13.485 9.937 H 1 N1
35 H18 10.132 10.151 10.470 H 1 N1
36 H19 10.080 13.671 8.302 H 1 N1
37 H20 11.451 12.754 7.680 H 1 N1
38 H21 11.358 10.217 7.671 H 1 N1
39 H22 8.893 11.590 8.888 H 1 N1
40 H23 8.746 8.978 8.642 H 1 N1
41 H24 9.949 8.275 7.548 H 1 N1
42 H25 8.292 12.049 6.605 H 1 N1
43 H26 9.908 11.635 6.011 H 1 N1
44 H27 7.693 9.775 6.754 H 1 N1
45 H28 9.100 9.493 5.725 H 1 N1
 
@<TRIPOS>BOND
1 4 2 1
2 2 1 1
3 1 3 1
4 3 5 1
5 5 7 1
6 4 7 1
7 7 9 1
8 9 11 1
9 11 8 1
10 5 6 1
11 8 6 1
12 9 10 1
13 10 12 1
14 12 14 1
15 14 13 1
16 11 13 1
17 14 16 1
18 16 17 1
19 17 15 1
20 13 15 1
21 45 17 1
22 44 17 1
23 43 16 1
24 42 16 1
25 41 15 1
26 40 15 1
27 39 14 1
28 37 12 1
29 36 12 1
30 38 13 1
31 31 8 1
32 30 8 1
33 34 10 1
34 33 10 1
35 35 11 1
36 28 6 1
37 27 6 1
38 23 3 1
39 22 3 1
40 32 9 1
41 26 5 1
42 19 1 1
43 18 1 1
44 29 7 1
45 21 2 1
46 20 2 1
47 25 4 1
48 24 4 1
