#exported by Narupa Builder at 10/08/2019
 
@<TRIPOS>MOLECULE
narupa builder molecule
9 9 0 0 0
SMALL
GASTEIGER
 
@<TRIPOS>ATOM
1 N1 -5.726 15.114 12.098 N.3 1 N1
2 N2 -5.738 13.007 11.745 N.2 1 N1
3 C1 -7.001 14.745 11.707 C.2 1 N1
4 C2 -7.013 13.393 11.480 C.2 1 N1
5 C3 -4.899 14.010 12.128 C.2 1 N1
6 H1 -7.793 15.479 11.625 H 1 N1
7 H2 -7.788 12.705 11.165 H 1 N1
8 H3 -3.854 13.955 12.389 H 1 N1
9 H4 -5.437 12.045 11.662 H 1 N1
 
@<TRIPOS>BOND
1 2 5 2
2 2 4 1
3 4 3 2
4 5 1 1
5 3 1 1
6 9 2 1
7 8 5 1
8 7 4 1
9 6 3 1
