#exported by Narupa Builder at 07/08/2019
 
@<TRIPOS>MOLECULE
narupa builder molecule
16 17 1 0 0
SMALL
NO_CHARGES
 
@<TRIPOS>ATOM
1 N1 2.320 10.889 6.055 N.3 1 N1
2 C1 1.744 7.909 2.669 C.2 1 N1
3 C2 2.322 7.052 3.615 C.2 1 N1
4 C3 1.523 9.255 2.977 C.2 1 N1
5 C4 2.684 7.534 4.877 C.2 1 N1
6 C5 1.892 9.708 4.239 C.2 1 N1
7 C6 2.453 8.876 5.157 C.2 1 N1
8 C7 1.768 11.019 4.779 C.2 1 N1
9 C8 2.733 9.590 6.357 C.2 1 N1
10 H1 1.466 7.525 1.690 H 1 N1
11 H2 2.490 6.007 3.367 H 1 N1
12 H3 1.075 9.928 2.250 H 1 N1
13 H4 3.133 6.877 5.617 H 1 N1
14 H5 1.439 11.963 4.360 H 1 N1
15 H6 3.225 9.315 7.282 H 1 N1
16 H7 2.418 11.664 6.697 H 1 N1
 
@<TRIPOS>BOND
1 6 8 2
2 6 7 1
3 7 9 2
4 9 1 1
5 8 1 1
6 1 16 1
7 4 6 1
8 14 8 1
9 5 7 1
10 15 9 1
11 5 3 2
12 3 2 1
13 4 2 2
14 13 5 1
15 12 4 1
16 11 3 1
17 10 2 1
