#exported by Narupa Builder at 16/08/2019
 
@<TRIPOS>MOLECULE
narupa builder molecule
14 15 0 0 0
SMALL
GASTEIGER
 
@<TRIPOS>ATOM
1 N1 11.074 9.765 7.700 N.2 1 N1
2 N2 13.659 11.878 9.199 N.2 1 N1
3 N3 12.524 8.406 9.007 N.2 1 N1
4 N4 14.299 9.309 10.136 N.2 1 N1
5 C1 11.472 8.594 8.205 C.2 1 N1
6 C2 11.828 10.826 8.056 C.2 1 N1
7 C3 12.935 10.773 8.873 C.2 1 N1
8 C4 14.714 11.663 10.008 C.2 1 N1
9 C5 13.242 9.481 9.334 C.2 1 N1
10 C6 15.026 10.401 10.467 C.2 1 N1
11 H1 10.891 7.717 7.941 H 1 N1
12 H2 11.505 11.779 7.646 H 1 N1
13 H3 15.302 12.532 10.278 H 1 N1
14 H4 15.875 10.225 11.118 H 1 N1
 
@<TRIPOS>BOND
1 2 8 1
2 8 10 2
3 10 4 1
4 4 9 2
5 9 7 1
6 2 7 2
7 7 6 1
8 6 1 2
9 1 5 1
10 5 3 2
11 9 3 1
12 13 8 1
13 14 10 1
14 12 6 1
15 11 5 1
