#exported by Narupa Builder at 10/08/2019
 
@<TRIPOS>MOLECULE
narupa builder molecule
13 14 0 0 0
SMALL
GASTEIGER
 
@<TRIPOS>ATOM
1 N1 1.556 15.628 9.829 N.2 1 N1
2 N2 4.236 13.485 8.529 N.2 1 N1
3 N3 0.695 13.703 8.620 N.2 1 N1
4 N4 2.549 12.312 7.778 N.3 1 N1
5 C1 0.559 14.850 9.332 C.2 1 N1
6 C2 2.821 15.209 9.584 C.2 1 N1
7 C3 3.055 14.041 8.860 C.2 1 N1
8 C4 3.899 12.574 7.958 C.2 1 N1
9 C5 1.976 13.334 8.407 C.2 1 N1
10 H1 -0.456 15.182 9.525 H 1 N1
11 H2 3.630 15.823 9.977 H 1 N1
12 H3 4.666 11.925 7.564 H 1 N1
13 H4 2.110 11.541 7.292 H 1 N1
 
@<TRIPOS>BOND
1 7 9 2
2 7 2 1
3 2 8 2
4 9 4 1
5 8 4 1
6 6 7 1
7 3 9 1
8 12 8 1
9 6 1 2
10 5 1 1
11 5 3 2
12 13 4 1
13 11 6 1
14 10 5 1
