#exported by Narupa Builder at 10/08/2019
 
@<TRIPOS>MOLECULE
narupa builder molecule
10 10 0 0 0
SMALL
GASTEIGER
 
@<TRIPOS>ATOM
1 N1 -3.301 9.926 12.717 N.2 1 N1
2 N2 -2.169 12.514 12.817 N.2 1 N1
3 C1 -1.974 10.120 12.889 C.2 1 N1
4 C2 -4.056 11.042 12.595 C.2 1 N1
5 C3 -1.415 11.398 12.939 C.2 1 N1
6 C4 -3.496 12.320 12.645 C.2 1 N1
7 H1 -1.363 9.225 12.987 H 1 N1
8 H2 -5.124 10.891 12.457 H 1 N1
9 H3 -0.346 11.549 13.077 H 1 N1
10 H4 -4.107 13.215 12.546 H 1 N1
 
@<TRIPOS>BOND
1 6 2 1
2 6 4 2
3 2 5 2
4 4 1 1
5 5 3 1
6 1 3 2
7 5 9 1
8 3 7 1
9 4 8 1
10 6 10 1
