#exported by Narupa Builder at 07/08/2019
 
@<TRIPOS>MOLECULE
narupa builder molecule
26 29 1 0 0
SMALL
NO_CHARGES
 
@<TRIPOS>ATOM
1 C1 2.543 9.419 5.301 C.2 1 N1
2 C2 2.998 9.569 6.610 C.2 1 N1
3 C3 2.398 10.534 4.477 C.2 1 N1
4 C4 3.311 10.837 7.101 C.2 1 N1
5 C5 2.709 11.806 4.959 C.2 1 N1
6 C6 2.566 12.927 4.140 C.2 1 N1
7 C7 3.768 10.995 8.410 C.2 1 N1
8 C8 3.166 11.958 6.274 C.2 1 N1
9 C9 2.878 14.195 4.626 C.2 1 N1
10 C10 4.080 12.264 8.896 C.2 1 N1
11 C11 3.479 13.232 6.762 C.2 1 N1
12 C12 3.334 14.353 5.935 C.2 1 N1
13 C13 3.937 13.385 8.077 C.2 1 N1
14 C14 3.648 15.622 6.426 C.2 1 N1
15 C15 4.248 14.657 8.559 C.2 1 N1
16 C16 4.103 15.771 7.735 C.2 1 N1
17 H1 2.300 8.430 4.922 H 1 N1
18 H2 3.108 8.692 7.244 H 1 N1
19 H3 2.042 10.405 3.457 H 1 N1
20 H4 2.211 12.817 3.118 H 1 N1
21 H5 3.883 10.130 9.059 H 1 N1
22 H6 2.762 15.061 3.978 H 1 N1
23 H7 4.434 12.374 9.918 H 1 N1
24 H8 3.538 16.498 5.792 H 1 N1
25 H9 4.604 14.786 9.579 H 1 N1
26 H10 4.346 16.761 8.114 H 1 N1
 
@<TRIPOS>BOND
1 3 5 2
2 3 1 1
3 1 2 2
4 2 4 1
5 5 8 1
6 4 8 2
7 5 6 1
8 8 11 1
9 11 12 2
10 6 9 2
11 12 9 1
12 4 7 1
13 7 10 2
14 11 13 1
15 10 13 1
16 13 15 2
17 15 16 1
18 12 14 1
19 16 14 2
20 19 3 1
21 17 1 1
22 18 2 1
23 20 6 1
24 22 9 1
25 21 7 1
26 23 10 1
27 25 15 1
28 26 16 1
29 24 14 1
