#exported by Narupa Builder at 10/08/2019
 
@<TRIPOS>MOLECULE
narupa builder molecule
10 10 0 0 0
SMALL
GASTEIGER
 
@<TRIPOS>ATOM
1 N1 -3.295 9.941 12.717 N.2 1 N1
2 N2 -1.352 11.367 12.947 N.2 1 N1
3 C1 -4.069 11.043 12.593 C.2 1 N1
4 C2 -3.529 12.328 12.640 C.2 1 N1
5 C3 -1.971 10.164 12.888 C.2 1 N1
6 C4 -2.151 12.450 12.820 C.2 1 N1
7 H1 -5.135 10.874 12.455 H 1 N1
8 H2 -4.162 13.206 12.539 H 1 N1
9 H3 -1.339 9.288 12.989 H 1 N1
10 H4 -1.664 13.421 12.866 H 1 N1
 
@<TRIPOS>BOND
1 4 6 2
2 4 3 1
3 6 2 1
4 3 1 2
5 2 5 2
6 1 5 1
7 5 9 1
8 3 7 1
9 4 8 1
10 10 6 1
