#exported by Narupa Builder at 07/08/2019
 
@<TRIPOS>MOLECULE
narupa builder molecule
11 11 1 0 0
SMALL
NO_CHARGES
 
@<TRIPOS>ATOM
1 N1 2.313 8.919 4.632 N.2 1 N1
2 C1 3.670 8.788 2.181 C.2 1 N1
3 C2 3.659 7.695 3.046 C.2 1 N1
4 C3 2.994 9.946 2.558 C.2 1 N1
5 C4 2.973 7.799 4.256 C.2 1 N1
6 C5 2.331 9.973 3.785 C.2 1 N1
7 H1 4.196 8.737 1.231 H 1 N1
8 H2 4.177 6.776 2.782 H 1 N1
9 H3 2.984 10.816 1.906 H 1 N1
10 H4 2.941 6.968 4.959 H 1 N1
11 H5 1.792 10.859 4.115 H 1 N1
 
@<TRIPOS>BOND
1 6 1 1
2 6 4 2
3 1 5 2
4 4 2 1
5 5 3 1
6 2 3 2
7 5 10 1
8 3 8 1
9 2 7 1
10 4 9 1
11 6 11 1
