#exported by Narupa Builder at 10/08/2019
 
@<TRIPOS>MOLECULE
narupa builder molecule
15 16 0 0 0
SMALL
GASTEIGER
 
@<TRIPOS>ATOM
1 N1 -1.431 19.343 9.837 N.3 1 N1
2 N2 -4.166 17.707 9.307 N.2 1 N1
3 N3 -0.490 17.229 9.950 N.2 1 N1
4 N4 -4.047 15.515 9.233 N.3 1 N1
5 N5 -1.882 15.289 9.631 N.2 1 N1
6 C1 -4.835 16.632 9.118 C.2 1 N1
7 C2 -1.595 17.991 9.766 C.2 1 N1
8 C3 -2.861 17.328 9.509 C.2 1 N1
9 C4 -0.694 15.894 9.872 C.2 1 N1
10 C5 -2.776 15.945 9.483 C.2 1 N1
11 H1 -0.557 19.709 10.199 H 1 N1
12 H2 -2.255 19.931 9.887 H 1 N1
13 H3 -5.893 16.569 8.919 H 1 N1
14 H4 -4.350 14.555 9.147 H 1 N1
15 H5 0.169 15.252 10.014 H 1 N1
 
@<TRIPOS>BOND
1 8 10 2
2 8 2 1
3 2 6 2
4 10 4 1
5 6 4 1
6 7 8 1
7 5 10 1
8 13 6 1
9 7 3 2
10 9 3 1
11 9 5 2
12 14 4 1
13 1 7 1
14 15 9 1
15 12 1 1
16 11 1 1
