#exported by Narupa Builder at 11/08/2019
 
@<TRIPOS>MOLECULE
narupa builder molecule
14 15 0 0 0
SMALL
GASTEIGER
 
@<TRIPOS>ATOM
1 O1 -3.305 20.843 10.225 O.2 1 N1
2 N1 -2.984 16.913 10.149 N.2 1 N1
3 N2 -0.749 17.061 10.600 N.3 1 N1
4 N3 -0.909 18.815 10.630 N.2 1 N1
5 N4 -4.295 18.841 9.956 N.3 1 N1
6 C1 -0.005 18.197 10.788 C.2 1 N1
7 C2 -4.225 17.407 9.919 C.2 1 N1
8 C3 -2.032 17.459 10.358 C.2 1 N1
9 C4 -1.997 18.840 10.414 C.2 1 N1
10 C5 -3.223 19.632 10.198 C.2 1 N1
11 H1 1.053 18.162 10.998 H 1 N1
12 H2 -0.411 16.109 10.633 H 1 N1
13 H3 -5.007 16.678 9.737 H 1 N1
14 H4 -5.197 19.261 9.791 H 1 N1
 
@<TRIPOS>BOND
1 9 8 2
2 9 4 1
3 4 6 2
4 8 3 1
5 6 3 1
6 10 9 1
7 2 8 1
8 11 6 1
9 10 5 1
10 7 5 1
11 7 2 2
12 12 3 1
13 1 10 2
14 13 7 1
15 14 5 1
