#exported by Narupa Builder at 10/08/2019
 
@<TRIPOS>MOLECULE
narupa builder molecule
15 15 0 0 0
SMALL
GASTEIGER
 
@<TRIPOS>ATOM
1 O1 -2.329 19.603 9.401 O.2 1 N1
2 O2 0.178 15.915 8.949 O.2 1 N1
3 N1 -1.119 17.738 9.158 N.3 1 N1
4 N2 -1.995 15.760 8.396 N.3 1 N1
5 C1 -4.757 18.280 8.459 C.3 1 N1
6 C2 -3.410 17.621 8.588 C.2 1 N1
7 C3 -2.279 18.432 9.082 C.2 1 N1
8 C4 -3.268 16.292 8.247 C.2 1 N1
9 C5 -0.911 16.439 8.841 C.2 1 N1
10 H1 -5.104 18.644 9.428 H 1 N1
11 H2 -5.508 17.587 8.073 H 1 N1
12 H3 -4.707 19.131 7.776 H 1 N1
13 H4 -4.028 15.614 7.878 H 1 N1
14 H5 -0.315 18.249 9.491 H 1 N1
15 H6 -1.864 14.789 8.153 H 1 N1
 
@<TRIPOS>BOND
1 8 4 1
2 8 6 2
3 4 9 1
4 6 7 1
5 9 3 1
6 7 3 1
7 9 2 2
8 3 14 1
9 7 1 2
10 6 5 1
11 8 13 1
12 15 4 1
13 12 5 1
14 11 5 1
15 10 5 1
