#exported by Narupa Builder at 10/08/2019
 
@<TRIPOS>MOLECULE
narupa builder molecule
12 12 0 0 0
SMALL
GASTEIGER
 
@<TRIPOS>ATOM
1 O1 -2.446 19.722 9.102 O.2 1 N1
2 O2 0.046 15.994 8.924 O.2 1 N1
3 N1 -1.238 17.838 9.003 N.3 1 N1
4 N2 -2.152 15.796 8.495 N.3 1 N1
5 C1 -3.553 17.675 8.558 C.2 1 N1
6 C2 -2.401 18.524 8.909 C.2 1 N1
7 C3 -3.430 16.318 8.352 C.2 1 N1
8 C4 -1.047 16.511 8.814 C.2 1 N1
9 H1 -4.509 18.181 8.471 H 1 N1
10 H2 -4.211 15.614 8.093 H 1 N1
11 H3 -0.420 18.377 9.241 H 1 N1
12 H4 -2.035 14.804 8.349 H 1 N1
 
@<TRIPOS>BOND
1 7 4 1
2 7 5 2
3 4 8 1
4 5 6 1
5 8 3 1
6 6 3 1
7 8 2 2
8 3 11 1
9 6 1 2
10 5 9 1
11 7 10 1
12 12 4 1
