#exported by Narupa Builder at 11/08/2019
 
@<TRIPOS>MOLECULE
narupa builder molecule
13 14 0 0 0
SMALL
GASTEIGER
 
@<TRIPOS>ATOM
1 O1 -3.586 20.748 10.464 O.2 1 N1
2 O2 -5.157 16.941 9.880 O.2 1 N1
3 N1 -0.956 18.815 10.663 N.2 1 N1
4 N2 -0.682 17.163 10.547 N.3 1 N1
5 N3 -3.286 17.017 10.157 N.3 1 N1
6 N4 -4.194 18.795 10.193 N.3 1 N1
7 C1 0.026 18.317 10.758 C.2 1 N1
8 C2 -2.050 18.890 10.512 C.2 1 N1
9 C3 -1.994 17.508 10.390 C.2 1 N1
10 C4 -3.379 19.555 10.382 C.2 1 N1
11 C5 -4.207 17.668 10.085 C.2 1 N1
12 H1 1.094 18.315 10.912 H 1 N1
13 H2 -0.302 16.226 10.515 H 1 N1
 
@<TRIPOS>BOND
1 8 9 2
2 8 3 1
3 3 7 2
4 9 4 1
5 7 4 1
6 10 8 1
7 5 9 1
8 12 7 1
9 10 6 1
10 11 6 1
11 11 5 1
12 13 4 1
13 1 10 2
14 2 11 2
