#exported by Narupa Builder at 10/08/2019
 
@<TRIPOS>MOLECULE
narupa builder molecule
13 13 0 0 0
SMALL
GASTEIGER
 
@<TRIPOS>ATOM
1 O1 0.068 16.009 8.691 O.2 1 N1
2 N1 -2.598 19.788 8.961 N.3 1 N1
3 N2 -1.202 17.908 8.833 N.2 1 N1
4 N3 -2.148 15.770 8.479 N.3 1 N1
5 C1 -3.642 17.621 8.596 C.2 1 N1
6 C2 -2.476 18.439 8.797 C.2 1 N1
7 C3 -3.449 16.262 8.436 C.2 1 N1
8 C4 -1.035 16.515 8.666 C.2 1 N1
9 H1 -3.499 20.234 8.826 H 1 N1
10 H2 -1.770 20.372 8.985 H 1 N1
11 H3 -4.633 18.064 8.572 H 1 N1
12 H4 -4.217 15.516 8.277 H 1 N1
13 H5 -2.022 14.776 8.361 H 1 N1
 
@<TRIPOS>BOND
1 7 4 1
2 7 5 2
3 4 8 1
4 5 6 1
5 8 3 1
6 6 3 2
7 8 1 2
8 6 2 1
9 5 11 1
10 7 12 1
11 13 4 1
12 10 2 1
13 9 2 1
