#exported by Narupa Builder at 11/08/2019
 
@<TRIPOS>MOLECULE
narupa builder molecule
24 24 0 0 0
SMALL
GASTEIGER
 
@<TRIPOS>ATOM
1 O1 7.086 17.860 10.231 O.3 1 N1
2 O2 5.862 16.729 7.896 O.3 1 N1
3 O3 4.899 17.876 12.031 O.3 1 N1
4 O4 3.728 18.596 7.581 O.3 1 N1
5 O5 3.620 19.153 10.484 O.3 1 N1
6 O6 0.727 18.898 10.621 O.3 1 N1
7 C1 5.808 18.303 9.768 C.3 1 N1
8 C2 5.092 17.148 9.030 C.3 1 N1
9 C3 4.959 18.827 10.956 C.3 1 N1
10 C4 3.671 17.579 8.594 C.3 1 N1
11 C5 2.883 18.078 9.832 C.3 1 N1
12 C6 1.474 18.580 9.447 C.3 1 N1
13 H1 7.590 18.643 10.510 H 1 N1
14 H2 6.179 17.517 7.418 H 1 N1
15 H3 4.694 18.342 12.867 H 1 N1
16 H4 5.965 19.126 9.065 H 1 N1
17 H5 3.703 19.474 8.005 H 1 N1
18 H6 4.998 16.297 9.711 H 1 N1
19 H7 5.403 19.746 11.366 H 1 N1
20 H8 3.159 16.708 8.177 H 1 N1
21 H9 2.777 17.251 10.541 H 1 N1
22 H10 0.949 17.797 8.894 H 1 N1
23 H11 1.547 19.469 8.816 H 1 N1
24 H12 0.615 19.865 10.652 H 1 N1
 
@<TRIPOS>BOND
1 7 9 1
2 9 5 1
3 5 11 1
4 11 10 1
5 10 8 1
6 8 7 1
7 11 12 1
8 2 8 1
9 18 8 1
10 23 12 1
11 22 12 1
12 6 12 1
13 4 10 1
14 20 10 1
15 1 7 1
16 16 7 1
17 21 11 1
18 19 9 1
19 3 9 1
20 14 2 1
21 24 6 1
22 17 4 1
23 13 1 1
24 15 3 1
