#exported by Narupa Builder at 11/08/2019
 
@<TRIPOS>MOLECULE
narupa builder molecule
24 24 0 0 0
SMALL
GASTEIGER
 
@<TRIPOS>ATOM
1 O1 0.611 19.669 11.510 O.3 1 N1
2 O2 2.140 17.172 8.785 O.3 1 N1
3 O3 4.792 17.828 7.942 O.3 1 N1
4 O4 5.173 18.499 12.310 O.3 1 N1
5 O5 3.295 19.495 11.409 O.3 1 N1
6 O6 6.620 18.660 9.901 O.3 1 N1
7 C1 1.097 18.341 11.342 C.3 1 N1
8 C2 2.593 18.306 10.936 C.3 1 N1
9 C3 2.879 18.223 9.419 C.3 1 N1
10 C4 4.392 17.942 9.295 C.3 1 N1
11 C5 4.750 19.442 11.343 C.3 1 N1
12 C6 5.238 19.075 9.919 C.3 1 N1
13 H1 0.691 20.114 10.656 H 1 N1
14 H2 0.986 17.820 12.297 H 1 N1
15 H3 0.482 17.821 10.603 H 1 N1
16 H4 2.247 17.262 7.816 H 1 N1
17 H5 3.024 17.426 11.422 H 1 N1
18 H6 5.760 17.897 8.011 H 1 N1
19 H7 2.629 19.174 8.941 H 1 N1
20 H8 4.441 18.512 12.947 H 1 N1
21 H9 4.624 17.002 9.804 H 1 N1
22 H10 5.140 20.422 11.654 H 1 N1
23 H11 5.139 19.969 9.296 H 1 N1
24 H12 7.101 18.931 10.703 H 1 N1
 
@<TRIPOS>BOND
1 12 11 1
2 11 5 1
3 5 8 1
4 8 9 1
5 9 10 1
6 10 12 1
7 8 7 1
8 3 10 1
9 21 10 1
10 15 7 1
11 14 7 1
12 1 7 1
13 19 9 1
14 2 9 1
15 6 12 1
16 23 12 1
17 17 8 1
18 22 11 1
19 4 11 1
20 18 3 1
21 13 1 1
22 16 2 1
23 24 6 1
24 20 4 1
