#exported by Narupa Builder at 10/08/2019
 
@<TRIPOS>MOLECULE
narupa builder molecule
16 17 0 0 0
SMALL
GASTEIGER
 
@<TRIPOS>ATOM
1 O1 -1.400 18.917 9.839 O.2 1 N1
2 N1 0.432 15.410 10.144 N.3 1 N1
3 N2 -1.668 15.141 9.755 N.2 1 N1
4 N3 -4.145 15.425 9.301 N.3 1 N1
5 N4 -4.148 17.600 9.321 N.2 1 N1
6 N5 -0.510 17.300 9.988 N.2 1 N1
7 C1 -4.753 16.664 9.201 C.2 1 N1
8 C2 -0.532 15.911 9.971 C.2 1 N1
9 C3 -2.864 15.709 9.540 C.2 1 N1
10 C4 -2.926 17.078 9.541 C.2 1 N1
11 C5 -1.749 17.876 9.765 C.1 1 N1
12 H1 0.485 14.419 10.369 H 1 N1
13 H2 1.245 15.857 10.565 H 1 N1
14 H3 -5.809 16.770 9.007 H 1 N1
15 H4 -4.573 14.513 9.214 H 1 N1
16 H5 0.332 17.837 10.148 H 1 N1
 
@<TRIPOS>BOND
1 10 9 2
2 10 5 1
3 5 7 2
4 9 4 1
5 7 4 1
6 11 10 1
7 3 9 1
8 14 7 1
9 11 6 2
10 8 6 1
11 8 3 2
12 15 4 1
13 2 8 1
14 1 11 2
15 16 6 1
16 13 2 1
17 12 2 1
