#exported by Narupa Builder at 11/08/2019
 
@<TRIPOS>MOLECULE
narupa builder molecule
23 24 0 0 0
SMALL
GASTEIGER
 
@<TRIPOS>ATOM
1 O1 -0.115 19.412 9.555 O.3 1 N1
2 O2 2.313 16.524 7.493 O.3 1 N1
3 O3 5.178 16.885 7.633 O.3 1 N1
4 O4 3.601 18.085 11.688 O.3 1 N1
5 O5 2.621 19.233 9.860 O.3 1 N1
6 O6 5.352 19.283 8.762 O.3 1 N1
7 C1 0.654 18.736 8.560 C.3 1 N1
8 C2 1.915 18.143 9.220 C.3 1 N1
9 C3 2.880 17.490 8.208 C.3 1 N1
10 C4 4.282 17.107 8.727 C.3 1 N1
11 C5 3.849 18.902 10.552 C.3 1 N1
12 C6 4.870 18.242 9.597 C.3 1 N1
13 H1 0.498 19.977 10.063 H 1 N1
14 H2 0.052 17.941 8.111 H 1 N1
15 H3 0.944 19.447 7.782 H 1 N1
16 H4 1.625 17.413 9.981 H 1 N1
17 H5 5.567 17.760 7.418 H 1 N1
18 H6 2.716 17.606 7.178 H 1 N1
19 H7 4.248 18.375 12.354 H 1 N1
20 H8 4.204 16.196 9.327 H 1 N1
21 H9 4.257 19.846 10.945 H 1 N1
22 H10 5.708 17.852 10.180 H 1 N1
23 H11 5.411 20.038 9.355 H 1 N1
 
@<TRIPOS>BOND
1 12 11 1
2 11 5 1
3 5 8 1
4 8 9 1
5 9 10 1
6 10 12 1
7 8 7 1
8 3 10 1
9 20 10 1
10 15 7 1
11 14 7 1
12 1 7 1
13 18 9 1
14 22 12 1
15 6 12 1
16 16 8 1
17 21 11 1
18 4 11 1
19 18 2 1
20 9 2 1
21 17 3 1
22 13 1 1
23 23 6 1
24 19 4 1
