#exported by Narupa Builder at 11/08/2019
 
@<TRIPOS>MOLECULE
narupa builder molecule
15 15 0 0 0
SMALL
GASTEIGER
 
@<TRIPOS>ATOM
1 O1 2.901 16.522 7.902 O.3 1 N1
2 O2 4.976 15.962 9.741 O.3 1 N1
3 O3 6.994 17.880 10.189 O.3 1 N1
4 O4 3.514 19.103 10.464 O.3 1 N1
5 O5 5.415 19.855 11.598 O.3 1 N1
6 C1 3.589 17.593 8.550 C.3 1 N1
7 C2 2.788 18.046 9.789 C.3 1 N1
8 C3 5.020 17.157 8.948 C.3 1 N1
9 C4 5.704 18.300 9.736 C.3 1 N1
10 C5 4.831 18.730 10.940 C.3 1 N1
11 H1 3.659 18.432 7.853 H 1 N1
12 H2 2.636 17.213 10.483 H 1 N1
13 H3 5.597 16.952 8.042 H 1 N1
14 H4 5.832 19.157 9.069 H 1 N1
15 H5 4.722 17.920 11.677 H 1 N1
 
@<TRIPOS>BOND
1 9 10 1
2 10 4 1
3 4 7 1
4 7 6 1
5 6 8 1
6 8 9 1
7 13 8 1
8 2 8 1
9 11 6 1
10 1 6 1
11 3 9 1
12 14 9 1
13 12 7 1
14 5 10 1
15 15 10 1
