#exported by Narupa Builder at 10/08/2019
 
@<TRIPOS>MOLECULE
narupa builder molecule
9 9 0 0 0
SMALL
GASTEIGER
 
@<TRIPOS>ATOM
1 O1 -2.439 14.773 12.931 O.3 1 N1
2 C1 -0.946 13.051 12.613 C.2 1 N1
3 C2 -2.233 12.598 12.207 C.2 1 N1
4 C3 -1.137 14.341 13.029 C.2 1 N1
5 C4 -3.069 13.662 12.421 C.2 1 N1
6 H1 -0.076 12.557 12.606 H 1 N1
7 H2 -2.499 11.705 11.843 H 1 N1
8 H3 -0.395 14.916 13.373 H 1 N1
9 H4 -4.049 13.631 12.223 H 1 N1
 
@<TRIPOS>BOND
1 5 3 2
2 3 2 1
3 2 4 2
4 5 1 1
5 4 1 1
6 8 4 1
7 6 2 1
8 7 3 1
9 9 5 1
