#exported by Narupa Builder at 10/08/2019
 
@<TRIPOS>MOLECULE
narupa builder molecule
15 16 0 0 0
SMALL
GASTEIGER
 
@<TRIPOS>ATOM
1 N1 -1.482 11.803 11.923 N.3 1 N1
2 N2 -0.689 13.850 11.930 N.2 1 N1
3 C1 -4.769 13.377 12.263 C.2 1 N1
4 C2 -4.275 14.690 12.269 C.2 1 N1
5 C3 -3.892 12.295 12.148 C.2 1 N1
6 C4 -2.900 14.938 12.160 C.2 1 N1
7 C5 -2.540 12.593 12.043 C.2 1 N1
8 C6 -2.033 13.853 12.046 C.2 1 N1
9 C7 -0.462 12.744 11.870 C.2 1 N1
10 H1 -5.838 13.200 12.348 H 1 N1
11 H2 -4.966 15.524 12.359 H 1 N1
12 H3 -4.252 11.269 12.141 H 1 N1
13 H4 -2.519 15.956 12.165 H 1 N1
14 H5 -1.434 10.794 11.881 H 1 N1
15 H6 0.575 12.460 11.770 H 1 N1
 
@<TRIPOS>BOND
1 2 9 2
2 2 8 1
3 8 7 2
4 9 1 1
5 7 1 1
6 15 9 1
7 6 8 1
8 5 7 1
9 5 3 2
10 3 4 1
11 6 4 2
12 14 1 1
13 12 5 1
14 13 6 1
15 10 3 1
16 11 4 1
