#exported by Narupa Builder at 07/08/2019
 
@<TRIPOS>MOLECULE
narupa builder molecule
18 19 1 0 0
SMALL
NO_CHARGES
 
@<TRIPOS>ATOM
1 C1 2.256 8.468 1.685 C.2 1 N1
2 C2 1.606 9.592 2.191 C.2 1 N1
3 C3 2.688 7.463 2.548 C.2 1 N1
4 C4 1.386 9.714 3.562 C.2 1 N1
5 C5 2.470 7.579 3.922 C.2 1 N1
6 C6 1.816 8.710 4.432 C.2 1 N1
7 C7 2.900 6.575 4.792 C.2 1 N1
8 C8 1.598 8.826 5.806 C.2 1 N1
9 C9 2.680 6.697 6.163 C.2 1 N1
10 C10 2.030 7.821 6.669 C.2 1 N1
11 H1 2.427 8.376 0.615 H 1 N1
12 H2 1.270 10.375 1.516 H 1 N1
13 H3 3.194 6.589 2.145 H 1 N1
14 H4 0.878 10.594 3.949 H 1 N1
15 H5 3.408 5.695 4.405 H 1 N1
16 H6 1.092 9.700 6.209 H 1 N1
17 H7 3.016 5.913 6.838 H 1 N1
18 H8 1.859 7.913 7.739 H 1 N1
 
@<TRIPOS>BOND
1 4 6 2
2 4 2 1
3 6 5 1
4 2 1 2
5 5 3 2
6 1 3 1
7 5 7 1
8 3 13 1
9 1 11 1
10 2 12 1
11 4 14 1
12 6 8 1
13 7 9 2
14 9 10 1
15 8 10 2
16 15 7 1
17 16 8 1
18 17 9 1
19 18 10 1
