#exported by Narupa Builder at 10/08/2019
 
@<TRIPOS>MOLECULE
narupa builder molecule
9 9 0 0 0
SMALL
GASTEIGER
 
@<TRIPOS>ATOM
1 N1 -6.090 11.422 11.019 N.3 1 N1
2 N2 -5.354 12.344 11.688 N.2 1 N1
3 C1 -7.582 12.936 11.294 C.2 1 N1
4 C2 -7.407 11.697 10.749 C.2 1 N1
5 C3 -6.328 13.307 11.856 C.2 1 N1
6 H1 -8.490 13.530 11.304 H 1 N1
7 H2 -8.064 11.018 10.220 H 1 N1
8 H3 -6.073 14.222 12.376 H 1 N1
9 H4 -5.630 10.565 10.745 H 1 N1
 
@<TRIPOS>BOND
1 1 2 1
2 1 4 1
3 4 3 2
4 3 5 1
5 2 5 2
6 9 1 1
7 7 4 1
8 6 3 1
9 8 5 1
