#exported by Narupa Builder at 10/08/2019
 
@<TRIPOS>MOLECULE
narupa builder molecule
10 10 0 0 0
SMALL
GASTEIGER
 
@<TRIPOS>ATOM
1 N1 -3.292 9.914 12.718 N.2 1 N1
2 N2 -1.948 10.115 12.892 N.2 1 N1
3 C1 -3.516 12.327 12.642 C.2 1 N1
4 C2 -4.038 11.037 12.597 C.2 1 N1
5 C3 -2.153 12.488 12.819 C.2 1 N1
6 C4 -1.372 11.349 12.945 C.2 1 N1
7 H1 -4.167 13.191 12.539 H 1 N1
8 H2 -5.108 10.899 12.458 H 1 N1
9 H3 -1.707 13.479 12.859 H 1 N1
10 H4 -1.392 9.275 12.982 H 1 N1
 
@<TRIPOS>BOND
1 3 5 1
2 3 4 2
3 5 6 2
4 4 1 1
5 6 2 1
6 1 2 2
7 2 10 1
8 4 8 1
9 3 7 1
10 9 5 1
