#exported by Narupa Builder at 07/08/2019
 
@<TRIPOS>MOLECULE
narupa builder molecule
10 10 1 0 0
SMALL
NO_CHARGES
 
@<TRIPOS>ATOM
1 N1 2.331 10.823 5.975 N.3 1 N1
2 C1 1.862 9.718 4.114 C.2 1 N1
3 C2 2.438 8.817 5.043 C.2 1 N1
4 C3 1.804 10.950 4.705 C.2 1 N1
5 C4 2.721 9.515 6.185 C.2 1 N1
6 H1 1.530 9.463 3.112 H 1 N1
7 H2 2.617 7.761 4.867 H 1 N1
8 H3 1.436 11.900 4.336 H 1 N1
9 H4 3.162 9.197 7.122 H 1 N1
10 H5 2.418 11.572 6.649 H 1 N1
 
@<TRIPOS>BOND
1 2 4 2
2 2 3 1
3 3 5 2
4 5 1 1
5 4 1 1
6 1 10 1
7 6 2 1
8 8 4 1
9 7 3 1
10 9 5 1
