#exported by Narupa Builder at 07/08/2019
 
@<TRIPOS>MOLECULE
narupa builder molecule
13 13 1 0 0
SMALL
NO_CHARGES
 
@<TRIPOS>ATOM
1 O1 3.103 9.812 7.773 O.3 1 N1
2 C1 2.438 9.577 5.548 C.3 1 N1
3 C2 3.967 9.444 5.605 C.3 1 N1
4 C3 1.979 9.359 6.994 C.3 1 N1
5 C4 4.314 9.404 7.103 C.3 1 N1
6 H1 2.161 10.582 5.219 H 1 N1
7 H2 1.990 8.846 4.870 H 1 N1
8 H3 4.446 10.295 5.116 H 1 N1
9 H4 4.299 8.525 5.115 H 1 N1
10 H5 1.080 9.933 7.236 H 1 N1
11 H6 1.819 8.294 7.188 H 1 N1
12 H7 4.558 8.382 7.407 H 1 N1
13 H8 5.135 10.081 7.353 H 1 N1
 
@<TRIPOS>BOND
1 3 5 1
2 3 2 1
3 3 9 1
4 3 8 1
5 5 1 1
6 5 13 1
7 5 12 1
8 2 4 1
9 2 7 1
10 2 6 1
11 1 4 1
12 4 11 1
13 4 10 1
