#exported by Narupa Builder at 16/08/2019
 
@<TRIPOS>MOLECULE
narupa builder molecule
8 8 0 0 0
SMALL
GASTEIGER
 
@<TRIPOS>ATOM
1 S1 26.170 21.085 13.935 S.2 1 N1
2 N1 24.959 23.198 13.076 N.3 1 N1
3 C1 25.056 23.306 14.450 C.2 1 N1
4 C2 25.681 22.256 15.089 C.2 1 N1
5 C3 25.513 22.068 12.692 C.2 1 N1
6 H1 24.648 24.181 14.941 H 1 N1
7 H2 25.868 22.125 16.145 H 1 N1
8 H3 25.555 21.769 11.652 H 1 N1
 
@<TRIPOS>BOND
1 1 5 2
2 1 4 1
3 4 3 2
4 3 2 1
5 5 2 1
6 8 5 1
7 7 4 1
8 6 3 1
