#exported by Narupa Builder at 24/10/2019
 
@<TRIPOS>MOLECULE
narupa builder molecule
20 19 0 0 0
SMALL
GASTEIGER
 
@<TRIPOS>ATOM
1 S1 0.814 18.095 9.696 S.3 1 N1
2 O1 -1.153 17.983 3.694 O.3 1 N1
3 O2 0.780 18.945 4.243 O.2 1 N1
4 N1 -1.453 16.561 5.889 N.3 1 N1
5 C1 0.742 16.792 10.948 C.3 1 N1
6 C2 0.327 17.103 8.246 C.3 1 N1
7 C3 0.231 17.999 7.013 C.3 1 N1
8 C4 -0.094 18.141 4.523 C.2 1 N1
9 C5 -0.127 17.210 5.746 C.3 1 N1
10 H1 1.460 16.002 10.717 H 1 N1
11 H2 -0.266 16.370 11.003 H 1 N1
12 H3 0.992 17.216 11.924 H 1 N1
13 H4 -0.637 16.632 8.460 H 1 N1
14 H5 1.075 16.319 8.089 H 1 N1
15 H6 -0.978 18.626 2.974 H 1 N1
16 H7 1.194 18.505 6.853 H 1 N1
17 H8 -0.511 18.792 7.174 H 1 N1
18 H9 -1.702 16.183 4.969 H 1 N1
19 H10 -2.151 17.292 6.042 H 1 N1
20 H11 0.613 16.424 5.563 H 1 N1
 
@<TRIPOS>BOND
1 20 9 1
2 8 9 1
3 9 4 1
4 9 7 1
5 8 3 2
6 8 2 1
7 19 4 1
8 18 4 1
9 6 7 1
10 17 7 1
11 16 7 1
12 15 2 1
13 6 1 1
14 14 6 1
15 13 6 1
16 5 1 1
17 12 5 1
18 11 5 1
19 10 5 1
